org.matsim.contrib.pseudosimulation.RunPSimTest#testA
2018-04-29 16:19:39,106  INFO Config:561 setting context to [file:/root/]
2018-04-29 16:19:39,188  WARN MatsimXmlParser:155 starting to parse xml from url jar:file:/root/workspace/matsim-org/matsim/372647121/.m2/org/matsim/matsim-examples/0.11.0-SNAPSHOT/matsim-examples-0.11.0-SNAPSHOT.jar!/test/scenarios/pt-tutorial/0.config.xml ...
2018-04-29 16:19:39,214  INFO ConfigReader:102 using config_v2-reader
2018-04-29 16:19:39,215  INFO MatsimXmlParser:270 Trying to load http://www.matsim.org/files/dtd/config_v2.dtd. In some cases (e.g. network interface up but no connection), this may take a bit.
2018-04-29 16:19:39,404  WARN PlanCalcScoreConfigGroup$ActivityParams:860 Setting minimalDuration different from zero is discouraged.  It is probably implemented correctly, but there is as of now no indication that it makes the results more realistic.  KN, Sep'08 This message given only once.
2018-04-29 16:19:39,413  INFO Config:561 setting context to [jar:file:/root/workspace/matsim-org/matsim/372647121/.m2/org/matsim/matsim-examples/0.11.0-SNAPSHOT/matsim-examples-0.11.0-SNAPSHOT.jar!/test/scenarios/pt-tutorial/0.config.xml]
.2018-04-29 16:19:39,444  INFO Config:561 setting context to [file:/root/]
2018-04-29 16:19:39,473  INFO ScenarioLoaderImpl:108 loading scenario from base directory: /root/
2018-04-29 16:19:39,473  INFO ScenarioLoaderImpl:130 loading network from jar:file:/root/workspace/matsim-org/matsim/372647121/.m2/org/matsim/matsim-examples/0.11.0-SNAPSHOT/matsim-examples-0.11.0-SNAPSHOT.jar!/test/scenarios/pt-tutorial/multimodalnetwork.xml
2018-04-29 16:19:39,476  WARN MatsimXmlParser:155 starting to parse xml from url jar:file:/root/workspace/matsim-org/matsim/372647121/.m2/org/matsim/matsim-examples/0.11.0-SNAPSHOT/matsim-examples-0.11.0-SNAPSHOT.jar!/test/scenarios/pt-tutorial/multimodalnetwork.xml ...
2018-04-29 16:19:39,479  INFO MatsimNetworkReader:90 using network_v1-reader.
2018-04-29 16:19:39,480  INFO MatsimXmlParser:270 Trying to load http://matsim.org/files/dtd/network_v1.dtd. In some cases (e.g. network interface up but no connection), this may take a bit.
2018-04-29 16:19:39,548  INFO NetworkImpl:167  node # 1
2018-04-29 16:19:39,549  INFO NetworkImpl:167  node # 4
2018-04-29 16:19:39,551  INFO NetworkImpl:167  node # 16
2018-04-29 16:19:39,556  WARN LinkImpl:148 length=0.0 of link id 11 may cause problems
2018-04-29 16:19:39,557  WARN LinkImpl:150  Future occurences of this logging statement are suppressed.
2018-04-29 16:19:39,560  WARN LinkImpl:108 fromNode=toNode=[id=1][coord=[x=1050.0][y=1050.0]][type=null][nof_inlinks=0][nof_outlinks=0]: link is a loop
2018-04-29 16:19:39,560  WARN LinkImpl:110  Future occurences of this logging statement are suppressed.
2018-04-29 16:19:39,561  WARN NodeImpl:87 [id=1][coord=[x=1050.0][y=1050.0]][type=null][nof_inlinks=0][nof_outlinks=1]: inlink_id=11 is now in- and out-link
2018-04-29 16:19:39,561  WARN NodeImpl:88  This message given only once.
2018-04-29 16:19:39,562  INFO NetworkImpl:163  link # 1
2018-04-29 16:19:39,563  INFO NetworkImpl:163  link # 4
2018-04-29 16:19:39,567  INFO NetworkImpl:163  link # 16
2018-04-29 16:19:39,575  INFO ScenarioLoaderImpl:182 no facilities file set in config, therefore not loading any facilities.  This is not a problem except if you are using facilities
2018-04-29 16:19:39,575  INFO ScenarioLoaderImpl:192 no facility-attributes file set in config, not loading any facility attributes
2018-04-29 16:19:39,575  INFO ScenarioLoaderImpl:199 loading population from jar:file:/root/workspace/matsim-org/matsim/372647121/.m2/org/matsim/matsim-examples/0.11.0-SNAPSHOT/matsim-examples-0.11.0-SNAPSHOT.jar!/test/scenarios/pt-tutorial/0.plans.xml.gz
2018-04-29 16:19:39,582  WARN MatsimXmlParser:155 starting to parse xml from url jar:file:/root/workspace/matsim-org/matsim/372647121/.m2/org/matsim/matsim-examples/0.11.0-SNAPSHOT/matsim-examples-0.11.0-SNAPSHOT.jar!/test/scenarios/pt-tutorial/0.plans.xml.gz ...
2018-04-29 16:19:39,588  INFO PopulationReader:124 using plans_v4-reader.
2018-04-29 16:19:39,588  INFO MatsimXmlParser:270 Trying to load http://www.matsim.org/files/dtd/plans_v4.dtd. In some cases (e.g. network interface up but no connection), this may take a bit.
2018-04-29 16:19:39,638  INFO ParallelPopulationReaderMatsimV4:138 Start parallel population reading...
2018-04-29 16:19:39,644  INFO PopulationImpl:112  person # 1
2018-04-29 16:19:39,650  INFO PopulationImpl:112  person # 4
2018-04-29 16:19:39,663  INFO PopulationImpl:112  person # 16
2018-04-29 16:19:39,687  INFO PopulationImpl:112  person # 64
2018-04-29 16:19:39,745  INFO PopulationImpl:112  person # 256
2018-04-29 16:19:39,836  INFO ParallelPopulationReaderMatsimV4:188 Finished parallel population reading...
2018-04-29 16:19:39,838  INFO PopulationUtils:992  person # 900
2018-04-29 16:19:39,838  INFO ScenarioLoaderImpl:235 no person-attributes file set in config, not loading any person attributes
2018-04-29 16:19:39,838  INFO ScenarioLoaderImpl:247 no households file set in config, not loading households
2018-04-29 16:19:39,838  INFO ScenarioLoaderImpl:258 no household-attributes file set in config, not loading any household attributes
2018-04-29 16:19:39,841  WARN MatsimXmlParser:155 starting to parse xml from url jar:file:/root/workspace/matsim-org/matsim/372647121/.m2/org/matsim/matsim-examples/0.11.0-SNAPSHOT/matsim-examples-0.11.0-SNAPSHOT.jar!/test/scenarios/pt-tutorial/transitschedule.xml ...
2018-04-29 16:19:39,844  INFO MatsimXmlParser:270 Trying to load http://www.matsim.org/files/dtd/transitSchedule_v1.dtd. In some cases (e.g. network interface up but no connection), this may take a bit.
2018-04-29 16:19:39,879  INFO ScenarioLoaderImpl:307 loading transit vehicles from transitVehicles.xml
2018-04-29 16:19:39,880  WARN MatsimXmlParser:155 starting to parse xml from url jar:file:/root/workspace/matsim-org/matsim/372647121/.m2/org/matsim/matsim-examples/0.11.0-SNAPSHOT/matsim-examples-0.11.0-SNAPSHOT.jar!/test/scenarios/pt-tutorial/transitVehicles.xml ...
2018-04-29 16:19:39,883  INFO MatsimXmlParser:270 Trying to load http://www.matsim.org/files/dtd/vehicleDefinitions_v1.0.xsd. In some cases (e.g. network interface up but no connection), this may take a bit.
2018-04-29 16:19:39,925  INFO MatsimXmlParser:270 Trying to load http://www.matsim.org/files/dtd/matsimCommon.xsd. In some cases (e.g. network interface up but no connection), this may take a bit.
2018-04-29 16:19:39,955  INFO MatsimXmlParser:270 Trying to load http://www.matsim.org/files/dtd/vehicleDefinitionsEnumTypes.xsd. In some cases (e.g. network interface up but no connection), this may take a bit.
2018-04-29 16:19:39,999  INFO Counter:61  vehicles # 1
2018-04-29 16:19:40,000  INFO Counter:61  vehicles # 2
2018-04-29 16:19:41,691 ERROR PSimTravelTimeCalculator:40 Calling reset on traveltimecalc
2018-04-29 16:19:41,692  INFO ParallelEventsManagerImpl:128 adding Event-Handler org.matsim.contrib.pseudosimulation.trafficinfo.PSimTravelTimeCalculator to thread 0
2018-04-29 16:19:41,693  INFO EventsManagerImpl:144 adding Event-Handler: org.matsim.contrib.pseudosimulation.trafficinfo.PSimTravelTimeCalculator
2018-04-29 16:19:41,694  INFO EventsManagerImpl:148   com.google.inject.Provider
2018-04-29 16:19:41,694  INFO EventsManagerImpl:148   org.matsim.api.core.v01.events.handler.LinkEnterEventHandler
2018-04-29 16:19:41,695  INFO EventsManagerImpl:207     > org.matsim.api.core.v01.events.LinkEnterEvent
2018-04-29 16:19:41,696  INFO EventsManagerImpl:148   org.matsim.api.core.v01.events.handler.LinkLeaveEventHandler
2018-04-29 16:19:41,697  INFO EventsManagerImpl:207     > org.matsim.api.core.v01.events.LinkLeaveEvent
2018-04-29 16:19:41,697  INFO EventsManagerImpl:148   org.matsim.api.core.v01.events.handler.VehicleEntersTrafficEventHandler
2018-04-29 16:19:41,698  INFO EventsManagerImpl:207     > org.matsim.api.core.v01.events.VehicleEntersTrafficEvent
2018-04-29 16:19:41,699  INFO EventsManagerImpl:148   org.matsim.api.core.v01.events.handler.VehicleLeavesTrafficEventHandler
2018-04-29 16:19:41,699  INFO EventsManagerImpl:207     > org.matsim.api.core.v01.events.VehicleLeavesTrafficEvent
2018-04-29 16:19:41,700  INFO EventsManagerImpl:148   org.matsim.core.api.experimental.events.handler.VehicleArrivesAtFacilityEventHandler
2018-04-29 16:19:41,700  INFO EventsManagerImpl:207     > org.matsim.core.api.experimental.events.VehicleArrivesAtFacilityEvent
2018-04-29 16:19:41,701  INFO EventsManagerImpl:148   org.matsim.api.core.v01.events.handler.VehicleAbortsEventHandler
2018-04-29 16:19:41,701  INFO EventsManagerImpl:207     > org.matsim.api.core.v01.events.VehicleAbortsEvent
2018-04-29 16:19:41,702  INFO EventsManagerImpl:156 
2018-04-29 16:19:41,707  INFO ParallelEventsManagerImpl:128 adding Event-Handler org.matsim.contrib.pseudosimulation.trafficinfo.PSimWaitTimeCalculator to thread 0
2018-04-29 16:19:41,708  INFO EventsManagerImpl:144 adding Event-Handler: org.matsim.contrib.pseudosimulation.trafficinfo.PSimWaitTimeCalculator
2018-04-29 16:19:41,708  INFO EventsManagerImpl:148   org.matsim.contrib.eventsBasedPTRouter.waitTimes.WaitTimeCalculator
2018-04-29 16:19:41,709  INFO EventsManagerImpl:148   org.matsim.api.core.v01.events.handler.PersonDepartureEventHandler
2018-04-29 16:19:41,709  INFO EventsManagerImpl:207     > org.matsim.api.core.v01.events.PersonDepartureEvent
2018-04-29 16:19:41,709  INFO EventsManagerImpl:148   org.matsim.api.core.v01.events.handler.PersonEntersVehicleEventHandler
2018-04-29 16:19:41,710  INFO EventsManagerImpl:207     > org.matsim.api.core.v01.events.PersonEntersVehicleEvent
2018-04-29 16:19:41,710  INFO EventsManagerImpl:148   org.matsim.api.core.v01.events.handler.TransitDriverStartsEventHandler
2018-04-29 16:19:41,710  INFO EventsManagerImpl:207     > org.matsim.api.core.v01.events.TransitDriverStartsEvent
2018-04-29 16:19:41,711  INFO EventsManagerImpl:148   org.matsim.core.api.experimental.events.handler.VehicleArrivesAtFacilityEventHandler
2018-04-29 16:19:41,711  INFO EventsManagerImpl:207     > org.matsim.core.api.experimental.events.VehicleArrivesAtFacilityEvent
2018-04-29 16:19:41,712  INFO EventsManagerImpl:148   java.io.Serializable
2018-04-29 16:19:41,712  INFO EventsManagerImpl:148   com.google.inject.Provider
2018-04-29 16:19:41,712  INFO EventsManagerImpl:156 
2018-04-29 16:19:41,716  INFO ParallelEventsManagerImpl:128 adding Event-Handler org.matsim.contrib.pseudosimulation.trafficinfo.PSimStopStopTimeCalculator to thread 0
2018-04-29 16:19:41,716  INFO EventsManagerImpl:144 adding Event-Handler: org.matsim.contrib.pseudosimulation.trafficinfo.PSimStopStopTimeCalculator
2018-04-29 16:19:41,717  INFO EventsManagerImpl:148   org.matsim.contrib.eventsBasedPTRouter.stopStopTimes.StopStopTimeCalculator
2018-04-29 16:19:41,718  INFO EventsManagerImpl:148   org.matsim.core.api.experimental.events.handler.VehicleArrivesAtFacilityEventHandler
2018-04-29 16:19:41,720  INFO EventsManagerImpl:207     > org.matsim.core.api.experimental.events.VehicleArrivesAtFacilityEvent
2018-04-29 16:19:41,721  INFO EventsManagerImpl:148   org.matsim.api.core.v01.events.handler.PersonLeavesVehicleEventHandler
2018-04-29 16:19:41,723  INFO EventsManagerImpl:207     > org.matsim.api.core.v01.events.PersonLeavesVehicleEvent
2018-04-29 16:19:41,723  INFO EventsManagerImpl:148   java.io.Serializable
2018-04-29 16:19:41,724  INFO EventsManagerImpl:148   com.google.inject.Provider
2018-04-29 16:19:41,725  INFO EventsManagerImpl:156 
2018-04-29 16:19:41,733 ERROR PSimTravelTimeCalculator:40 Calling reset on traveltimecalc
2018-04-29 16:19:41,734  INFO ParallelEventsManagerImpl:128 adding Event-Handler org.matsim.contrib.pseudosimulation.trafficinfo.PSimTravelTimeCalculator to thread 0
2018-04-29 16:19:41,735  INFO EventsManagerImpl:144 adding Event-Handler: org.matsim.contrib.pseudosimulation.trafficinfo.PSimTravelTimeCalculator
2018-04-29 16:19:41,735  INFO EventsManagerImpl:148   com.google.inject.Provider
2018-04-29 16:19:41,736  INFO EventsManagerImpl:148   org.matsim.api.core.v01.events.handler.LinkEnterEventHandler
2018-04-29 16:19:41,736  INFO EventsManagerImpl:207     > org.matsim.api.core.v01.events.LinkEnterEvent
2018-04-29 16:19:41,737  INFO EventsManagerImpl:148   org.matsim.api.core.v01.events.handler.LinkLeaveEventHandler
2018-04-29 16:19:41,737  INFO EventsManagerImpl:207     > org.matsim.api.core.v01.events.LinkLeaveEvent
2018-04-29 16:19:41,738  INFO EventsManagerImpl:148   org.matsim.api.core.v01.events.handler.VehicleEntersTrafficEventHandler
2018-04-29 16:19:41,738  INFO EventsManagerImpl:207     > org.matsim.api.core.v01.events.VehicleEntersTrafficEvent
2018-04-29 16:19:41,739  INFO EventsManagerImpl:148   org.matsim.api.core.v01.events.handler.VehicleLeavesTrafficEventHandler
2018-04-29 16:19:41,740  INFO EventsManagerImpl:207     > org.matsim.api.core.v01.events.VehicleLeavesTrafficEvent
2018-04-29 16:19:41,740  INFO EventsManagerImpl:148   org.matsim.core.api.experimental.events.handler.VehicleArrivesAtFacilityEventHandler
2018-04-29 16:19:41,741  INFO EventsManagerImpl:207     > org.matsim.core.api.experimental.events.VehicleArrivesAtFacilityEvent
2018-04-29 16:19:41,741  INFO EventsManagerImpl:148   org.matsim.api.core.v01.events.handler.VehicleAbortsEventHandler
2018-04-29 16:19:41,742  INFO EventsManagerImpl:207     > org.matsim.api.core.v01.events.VehicleAbortsEvent
2018-04-29 16:19:41,743  INFO EventsManagerImpl:156 
2018-04-29 16:19:41,771  INFO StrategyManager:59 global innovation switch off after iteration: 2147483647
2018-04-29 16:19:41,774  INFO GenericStrategyManager:318 added change request:  iteration=-2147483648 newWeight=0.0 strategy=RandomPlanSelector_ReRoute
2018-04-29 16:19:41,775  INFO GenericStrategyManager:318 added change request:  iteration=-2147483648 newWeight=0.0 strategy=RandomPlanSelector_TimeAllocationMutator
2018-04-29 16:19:41,775  INFO GenericStrategyManager:318 added change request:  iteration=-2147483648 newWeight=0.0 strategy=RandomPlanSelector_TripsToLegsModule_ChangeLegMode_ReRoute
2018-04-29 16:19:41,776  INFO GenericStrategyManager:350 setting PlanSelectorForRemoval to class org.matsim.core.replanning.selectors.WorstPlanForRemovalSelector
2018-04-29 16:19:41,779  INFO ParallelEventsManagerImpl:128 adding Event-Handler org.matsim.core.scoring.EventsToActivities to thread 0
2018-04-29 16:19:41,780  INFO EventsManagerImpl:144 adding Event-Handler: org.matsim.core.scoring.EventsToActivities
2018-04-29 16:19:41,780  INFO EventsManagerImpl:148   org.matsim.api.core.v01.events.handler.ActivityStartEventHandler
2018-04-29 16:19:41,781  INFO EventsManagerImpl:207     > org.matsim.api.core.v01.events.ActivityStartEvent
2018-04-29 16:19:41,781  INFO EventsManagerImpl:148   org.matsim.api.core.v01.events.handler.ActivityEndEventHandler
2018-04-29 16:19:41,782  INFO EventsManagerImpl:207     > org.matsim.api.core.v01.events.ActivityEndEvent
2018-04-29 16:19:41,782  INFO EventsManagerImpl:156 
2018-04-29 16:19:41,783  INFO ParallelEventsManagerImpl:128 adding Event-Handler org.matsim.core.scoring.EventsToLegs to thread 0
2018-04-29 16:19:41,784  INFO EventsManagerImpl:144 adding Event-Handler: org.matsim.core.scoring.EventsToLegs
2018-04-29 16:19:41,784  INFO EventsManagerImpl:148   org.matsim.api.core.v01.events.handler.PersonDepartureEventHandler
2018-04-29 16:19:41,785  INFO EventsManagerImpl:207     > org.matsim.api.core.v01.events.PersonDepartureEvent
2018-04-29 16:19:41,785  INFO EventsManagerImpl:148   org.matsim.api.core.v01.events.handler.PersonArrivalEventHandler
2018-04-29 16:19:41,786  INFO EventsManagerImpl:207     > org.matsim.api.core.v01.events.PersonArrivalEvent
2018-04-29 16:19:41,786  INFO EventsManagerImpl:148   org.matsim.api.core.v01.events.handler.LinkLeaveEventHandler
2018-04-29 16:19:41,787  INFO EventsManagerImpl:207     > org.matsim.api.core.v01.events.LinkLeaveEvent
2018-04-29 16:19:41,788  INFO EventsManagerImpl:148   org.matsim.api.core.v01.events.handler.LinkEnterEventHandler
2018-04-29 16:19:41,788  INFO EventsManagerImpl:207     > org.matsim.api.core.v01.events.LinkEnterEvent
2018-04-29 16:19:41,789  INFO EventsManagerImpl:148   org.matsim.core.api.experimental.events.handler.TeleportationArrivalEventHandler
2018-04-29 16:19:41,790  INFO EventsManagerImpl:207     > org.matsim.core.api.experimental.events.TeleportationArrivalEvent
2018-04-29 16:19:41,791  INFO EventsManagerImpl:148   org.matsim.api.core.v01.events.handler.TransitDriverStartsEventHandler
2018-04-29 16:19:41,791  INFO EventsManagerImpl:207     > org.matsim.api.core.v01.events.TransitDriverStartsEvent
2018-04-29 16:19:41,792  INFO EventsManagerImpl:148   org.matsim.api.core.v01.events.handler.PersonEntersVehicleEventHandler
2018-04-29 16:19:41,792  INFO EventsManagerImpl:207     > org.matsim.api.core.v01.events.PersonEntersVehicleEvent
2018-04-29 16:19:41,793  INFO EventsManagerImpl:148   org.matsim.core.api.experimental.events.handler.VehicleArrivesAtFacilityEventHandler
2018-04-29 16:19:41,793  INFO EventsManagerImpl:207     > org.matsim.core.api.experimental.events.VehicleArrivesAtFacilityEvent
2018-04-29 16:19:41,794  INFO EventsManagerImpl:148   org.matsim.api.core.v01.events.handler.VehicleEntersTrafficEventHandler
2018-04-29 16:19:41,794  INFO EventsManagerImpl:207     > org.matsim.api.core.v01.events.VehicleEntersTrafficEvent
2018-04-29 16:19:41,795  INFO EventsManagerImpl:148   org.matsim.api.core.v01.events.handler.VehicleLeavesTrafficEventHandler
2018-04-29 16:19:41,795  INFO EventsManagerImpl:207     > org.matsim.api.core.v01.events.VehicleLeavesTrafficEvent
2018-04-29 16:19:41,796  INFO EventsManagerImpl:156 
2018-04-29 16:19:41,797  INFO ParallelEventsManagerImpl:128 adding Event-Handler org.matsim.core.scoring.ScoringFunctionsForPopulation to thread 0
2018-04-29 16:19:41,798  INFO EventsManagerImpl:144 adding Event-Handler: org.matsim.core.scoring.ScoringFunctionsForPopulation
2018-04-29 16:19:41,798  INFO EventsManagerImpl:148   org.matsim.core.events.handler.BasicEventHandler
2018-04-29 16:19:41,799  INFO EventsManagerImpl:207     > org.matsim.api.core.v01.events.Event
2018-04-29 16:19:41,799  INFO EventsManagerImpl:148   org.matsim.core.scoring.EventsToLegs$LegHandler
2018-04-29 16:19:41,800  INFO EventsManagerImpl:148   org.matsim.core.scoring.EventsToActivities$ActivityHandler
2018-04-29 16:19:41,800  INFO EventsManagerImpl:156 
2018-04-29 16:19:41,803  INFO CalcLinkStats:151  resetting `count' to zero.  This info is here since we want to check when this is happening during normal simulation runs.  kai, jan'11
2018-04-29 16:19:41,806  INFO ParallelEventsManagerImpl:128 adding Event-Handler org.matsim.analysis.VolumesAnalyzer to thread 0
2018-04-29 16:19:41,807  INFO EventsManagerImpl:144 adding Event-Handler: org.matsim.analysis.VolumesAnalyzer
2018-04-29 16:19:41,807  INFO EventsManagerImpl:148   org.matsim.api.core.v01.events.handler.LinkLeaveEventHandler
2018-04-29 16:19:41,808  INFO EventsManagerImpl:207     > org.matsim.api.core.v01.events.LinkLeaveEvent
2018-04-29 16:19:41,809  INFO EventsManagerImpl:148   org.matsim.api.core.v01.events.handler.VehicleEntersTrafficEventHandler
2018-04-29 16:19:41,809  INFO EventsManagerImpl:207     > org.matsim.api.core.v01.events.VehicleEntersTrafficEvent
2018-04-29 16:19:41,809  INFO EventsManagerImpl:156 
2018-04-29 16:19:41,810 ERROR PSimTravelTimeCalculator:40 Calling reset on traveltimecalc
2018-04-29 16:19:41,811  INFO ParallelEventsManagerImpl:128 adding Event-Handler org.matsim.contrib.pseudosimulation.trafficinfo.PSimTravelTimeCalculator to thread 0
2018-04-29 16:19:41,811  INFO EventsManagerImpl:144 adding Event-Handler: org.matsim.contrib.pseudosimulation.trafficinfo.PSimTravelTimeCalculator
2018-04-29 16:19:41,813  INFO EventsManagerImpl:148   com.google.inject.Provider
2018-04-29 16:19:41,813  INFO EventsManagerImpl:148   org.matsim.api.core.v01.events.handler.LinkEnterEventHandler
2018-04-29 16:19:41,814  INFO EventsManagerImpl:207     > org.matsim.api.core.v01.events.LinkEnterEvent
2018-04-29 16:19:41,814  INFO EventsManagerImpl:148   org.matsim.api.core.v01.events.handler.LinkLeaveEventHandler
2018-04-29 16:19:41,815  INFO EventsManagerImpl:207     > org.matsim.api.core.v01.events.LinkLeaveEvent
2018-04-29 16:19:41,815  INFO EventsManagerImpl:148   org.matsim.api.core.v01.events.handler.VehicleEntersTrafficEventHandler
2018-04-29 16:19:41,816  INFO EventsManagerImpl:207     > org.matsim.api.core.v01.events.VehicleEntersTrafficEvent
2018-04-29 16:19:41,816  INFO EventsManagerImpl:148   org.matsim.api.core.v01.events.handler.VehicleLeavesTrafficEventHandler
2018-04-29 16:19:41,817  INFO EventsManagerImpl:207     > org.matsim.api.core.v01.events.VehicleLeavesTrafficEvent
2018-04-29 16:19:41,817  INFO EventsManagerImpl:148   org.matsim.core.api.experimental.events.handler.VehicleArrivesAtFacilityEventHandler
2018-04-29 16:19:41,818  INFO EventsManagerImpl:207     > org.matsim.core.api.experimental.events.VehicleArrivesAtFacilityEvent
2018-04-29 16:19:41,818  INFO EventsManagerImpl:148   org.matsim.api.core.v01.events.handler.VehicleAbortsEventHandler
2018-04-29 16:19:41,819  INFO EventsManagerImpl:207     > org.matsim.api.core.v01.events.VehicleAbortsEvent
2018-04-29 16:19:41,819  INFO EventsManagerImpl:156 
2018-04-29 16:19:41,820  INFO ParallelEventsManagerImpl:128 adding Event-Handler org.matsim.analysis.LegHistogram to thread 0
2018-04-29 16:19:41,821  INFO EventsManagerImpl:144 adding Event-Handler: org.matsim.analysis.LegHistogram
2018-04-29 16:19:41,821  INFO EventsManagerImpl:148   org.matsim.api.core.v01.events.handler.PersonDepartureEventHandler
2018-04-29 16:19:41,821  INFO EventsManagerImpl:207     > org.matsim.api.core.v01.events.PersonDepartureEvent
2018-04-29 16:19:41,822  INFO EventsManagerImpl:148   org.matsim.api.core.v01.events.handler.PersonArrivalEventHandler
2018-04-29 16:19:41,822  INFO EventsManagerImpl:207     > org.matsim.api.core.v01.events.PersonArrivalEvent
2018-04-29 16:19:41,823  INFO EventsManagerImpl:148   org.matsim.api.core.v01.events.handler.PersonStuckEventHandler
2018-04-29 16:19:41,823  INFO EventsManagerImpl:207     > org.matsim.api.core.v01.events.PersonStuckEvent
2018-04-29 16:19:41,823  INFO EventsManagerImpl:156 
2018-04-29 16:19:41,824  INFO ParallelEventsManagerImpl:128 adding Event-Handler org.matsim.analysis.CalcLegTimes to thread 0
2018-04-29 16:19:41,825  INFO EventsManagerImpl:144 adding Event-Handler: org.matsim.analysis.CalcLegTimes
2018-04-29 16:19:41,825  INFO EventsManagerImpl:148   org.matsim.api.core.v01.events.handler.PersonDepartureEventHandler
2018-04-29 16:19:41,826  INFO EventsManagerImpl:207     > org.matsim.api.core.v01.events.PersonDepartureEvent
2018-04-29 16:19:41,826  INFO EventsManagerImpl:148   org.matsim.api.core.v01.events.handler.PersonArrivalEventHandler
2018-04-29 16:19:41,826  INFO EventsManagerImpl:207     > org.matsim.api.core.v01.events.PersonArrivalEvent
2018-04-29 16:19:41,827  INFO EventsManagerImpl:148   org.matsim.api.core.v01.events.handler.ActivityEndEventHandler
2018-04-29 16:19:41,827  INFO EventsManagerImpl:207     > org.matsim.api.core.v01.events.ActivityEndEvent
2018-04-29 16:19:41,828  INFO EventsManagerImpl:148   org.matsim.api.core.v01.events.handler.ActivityStartEventHandler
2018-04-29 16:19:41,828  INFO EventsManagerImpl:207     > org.matsim.api.core.v01.events.ActivityStartEvent
2018-04-29 16:19:41,829  INFO EventsManagerImpl:156 
2018-04-29 16:19:41,833  INFO AbstractController:52 Used Controler-Class: org.matsim.core.controler.NewControler
2018-04-29 16:19:41,834  INFO Config:534 ConfigConsistencyChecker with runtime type=class org.matsim.core.config.consistency.ConfigConsistencyCheckerImpl was already added; not adding it a second time
2018-04-29 16:19:41,835  INFO ParallelEventsManagerImpl:128 adding Event-Handler org.matsim.contrib.pseudosimulation.searchacceleration.LinkUsageListener to thread 0
2018-04-29 16:19:41,836  INFO EventsManagerImpl:144 adding Event-Handler: org.matsim.contrib.pseudosimulation.searchacceleration.LinkUsageListener
2018-04-29 16:19:41,836  INFO EventsManagerImpl:148   org.matsim.api.core.v01.events.handler.LinkEnterEventHandler
2018-04-29 16:19:41,837  INFO EventsManagerImpl:207     > org.matsim.api.core.v01.events.LinkEnterEvent
2018-04-29 16:19:41,837  INFO EventsManagerImpl:148   org.matsim.api.core.v01.events.handler.VehicleEntersTrafficEventHandler
2018-04-29 16:19:41,838  INFO EventsManagerImpl:207     > org.matsim.api.core.v01.events.VehicleEntersTrafficEvent
2018-04-29 16:19:41,839  INFO EventsManagerImpl:156 
2018-04-29 16:19:41,840  INFO Injector:80 === printInjector start ===
2018-04-29 16:19:41,841  INFO Injector:84 org.matsim.core.controler.listener.ControlerListener @com.google.inject.multibindings.Element(setName=,uniqueId=85, type=MULTIBINDER, keyType=)
2018-04-29 16:19:41,841  INFO Injector:85   --> provider: of(org.matsim.contrib.pseudosimulation.RunPSimTest$ExecScoreTracker@4fece269)
2018-04-29 16:19:41,841  INFO Injector:86   --> source: org.matsim.core.controler.Controler$5.install(Controler.java:384)
2018-04-29 16:19:41,841  INFO Injector:88   --> scope: eager singleton
2018-04-29 16:19:41,842  INFO Injector:92 
2018-04-29 16:19:41,842  INFO Injector:84 org.matsim.core.controler.listener.ControlerListener @com.google.inject.multibindings.Element(setName=,uniqueId=84, type=MULTIBINDER, keyType=)
2018-04-29 16:19:41,842  INFO Injector:85   --> provider: of(org.matsim.contrib.pseudosimulation.searchacceleration.LinkUsageAnalyzer@1b5856db)
2018-04-29 16:19:41,842  INFO Injector:86   --> source: org.matsim.core.controler.Controler$5.install(Controler.java:384)
2018-04-29 16:19:41,843  INFO Injector:88   --> scope: eager singleton
2018-04-29 16:19:41,843  INFO Injector:92 
2018-04-29 16:19:41,844  INFO Injector:84 org.matsim.core.events.handler.EventHandler @com.google.inject.multibindings.Element(setName=,uniqueId=83, type=MULTIBINDER, keyType=)
2018-04-29 16:19:41,844  INFO Injector:85   --> provider: of(org.matsim.contrib.pseudosimulation.searchacceleration.LinkUsageListener@51145c00)
2018-04-29 16:19:41,844  INFO Injector:86   --> source: org.matsim.core.controler.Controler$3$1.install(Controler.java:287)
2018-04-29 16:19:41,844  INFO Injector:88   --> scope: eager singleton
2018-04-29 16:19:41,845  INFO Injector:92 
2018-04-29 16:19:41,845  INFO Injector:84 org.matsim.contrib.pseudosimulation.MobSimSwitcher 
2018-04-29 16:19:41,845  INFO Injector:85   --> provider: of(org.matsim.contrib.pseudosimulation.MobSimSwitcher@2cdbe014)
2018-04-29 16:19:41,845  INFO Injector:86   --> source: org.matsim.contrib.pseudosimulation.RunPSim$1.install(RunPSim.java:85)
2018-04-29 16:19:41,846  INFO Injector:88   --> scope: eager singleton
2018-04-29 16:19:41,846  INFO Injector:92 
2018-04-29 16:19:41,846  INFO Injector:84 org.matsim.core.mobsim.framework.Mobsim 
2018-04-29 16:19:41,847  INFO Injector:85   --> provider: Key[type=org.matsim.contrib.pseudosimulation.mobsim.SwitchingMobsimProvider, annotation=[none]]
2018-04-29 16:19:41,847  INFO Injector:86   --> source: org.matsim.contrib.pseudosimulation.RunPSim$1.install(RunPSim.java:86)
2018-04-29 16:19:41,847  INFO Injector:88   --> scope: Scopes.NO_SCOPE
2018-04-29 16:19:41,847  INFO Injector:92 
2018-04-29 16:19:41,847  INFO Injector:84 org.matsim.contrib.eventsBasedPTRouter.waitTimes.WaitTimeCalculator 
2018-04-29 16:19:41,850  INFO Injector:85   --> provider: FactoryProxy{key=Key[type=org.matsim.contrib.eventsBasedPTRouter.waitTimes.WaitTimeCalculator, annotation=[none]], provider=com.google.inject.internal.ConstructorBindingImpl$Factory@2c4aa561[Scopes.SINGLETON]}
2018-04-29 16:19:41,850  INFO Injector:86   --> source: org.matsim.contrib.pseudosimulation.RunPSim$1.install(RunPSim.java:87)
2018-04-29 16:19:41,851  INFO Injector:88   --> scope: Scopes.NO_SCOPE
2018-04-29 16:19:41,851  INFO Injector:92 
2018-04-29 16:19:41,851  INFO Injector:84 org.matsim.contrib.eventsBasedPTRouter.waitTimes.WaitTime 
2018-04-29 16:19:41,851  INFO Injector:85   --> provider: Key[type=org.matsim.contrib.pseudosimulation.trafficinfo.PSimWaitTimeCalculator, annotation=[none]]
2018-04-29 16:19:41,852  INFO Injector:86   --> source: org.matsim.contrib.pseudosimulation.RunPSim$1.install(RunPSim.java:88)
2018-04-29 16:19:41,852  INFO Injector:88   --> scope: Scopes.NO_SCOPE
2018-04-29 16:19:41,852  INFO Injector:92 
2018-04-29 16:19:41,852  INFO Injector:84 org.matsim.contrib.eventsBasedPTRouter.stopStopTimes.StopStopTimeCalculator 
2018-04-29 16:19:41,852  INFO Injector:85   --> provider: FactoryProxy{key=Key[type=org.matsim.contrib.eventsBasedPTRouter.stopStopTimes.StopStopTimeCalculator, annotation=[none]], provider=com.google.inject.internal.ConstructorBindingImpl$Factory@7ad095c7[Scopes.SINGLETON]}
2018-04-29 16:19:41,853  INFO Injector:86   --> source: org.matsim.contrib.pseudosimulation.RunPSim$1.install(RunPSim.java:89)
2018-04-29 16:19:41,853  INFO Injector:88   --> scope: Scopes.NO_SCOPE
2018-04-29 16:19:41,853  INFO Injector:92 
2018-04-29 16:19:41,853  INFO Injector:84 org.matsim.contrib.eventsBasedPTRouter.stopStopTimes.StopStopTime 
2018-04-29 16:19:41,853  INFO Injector:85   --> provider: Key[type=org.matsim.contrib.pseudosimulation.trafficinfo.PSimStopStopTimeCalculator, annotation=[none]]
2018-04-29 16:19:41,854  INFO Injector:86   --> source: org.matsim.contrib.pseudosimulation.RunPSim$1.install(RunPSim.java:90)
2018-04-29 16:19:41,854  INFO Injector:88   --> scope: Scopes.NO_SCOPE
2018-04-29 16:19:41,854  INFO Injector:92 
2018-04-29 16:19:41,854  INFO Injector:84 org.matsim.core.trafficmonitoring.TravelTimeCalculator 
2018-04-29 16:19:41,854  INFO Injector:85   --> provider: FactoryProxy{key=Key[type=org.matsim.core.trafficmonitoring.TravelTimeCalculator, annotation=[none]], provider=com.google.inject.internal.ConstructorBindingImpl$Factory@140f6334}