org.matsim.counts.CountsControlerListenerTest#testFilterAnalyzedModes
.2018-04-08 23:03:55,429  INFO Config:561 setting context to [file:/root/]
2018-04-08 23:03:57,185  INFO Config:561 setting context to [jar:file:/root/workspace/matsim-org/matsim/363810719/.m2/org/matsim/matsim-examples/0.11.0-SNAPSHOT/matsim-examples-0.11.0-SNAPSHOT.jar!/test/scenarios/triangle/]
2018-04-08 23:03:57,217  INFO Config:561 setting context to [file:/root/]
2018-04-08 23:03:57,246  INFO ScenarioLoaderImpl:108 loading scenario from base directory: /root/
2018-04-08 23:03:57,246  INFO ScenarioLoaderImpl:130 loading network from jar:file:/root/workspace/matsim-org/matsim/363810719/.m2/org/matsim/matsim-examples/0.11.0-SNAPSHOT/matsim-examples-0.11.0-SNAPSHOT.jar!/test/scenarios/triangle/network.xml
2018-04-08 23:03:57,250  INFO MatsimXmlParser:155 starting to parse xml from url jar:file:/root/workspace/matsim-org/matsim/363810719/.m2/org/matsim/matsim-examples/0.11.0-SNAPSHOT/matsim-examples-0.11.0-SNAPSHOT.jar!/test/scenarios/triangle/network.xml ...
2018-04-08 23:03:57,346  INFO MatsimNetworkReader:90 using network_v1-reader.
2018-04-08 23:03:57,347  INFO MatsimXmlParser:270 Trying to load http://www.matsim.org/files/dtd/network_v1.dtd. In some cases (e.g. network interface up but no connection), this may take a bit.
2018-04-08 23:03:57,522  INFO NetworkImpl:167  node # 1
2018-04-08 23:03:57,523  INFO NetworkImpl:167  node # 4
2018-04-08 23:03:57,529  INFO NetworkImpl:163  link # 1
2018-04-08 23:03:57,530  INFO NetworkImpl:163  link # 4
2018-04-08 23:03:57,534  INFO NetworkImpl:163  link # 16
2018-04-08 23:03:57,536  INFO ScenarioLoaderImpl:182 no facilities file set in config, therefore not loading any facilities.  This is not a problem except if you are using facilities
2018-04-08 23:03:57,536  INFO ScenarioLoaderImpl:192 no facility-attributes file set in config, not loading any facility attributes
2018-04-08 23:03:57,537  INFO ScenarioLoaderImpl:225 no population file set in config, not able to load population
2018-04-08 23:03:57,537  INFO ScenarioLoaderImpl:235 no person-attributes file set in config, not loading any person attributes
2018-04-08 23:03:57,537  INFO ScenarioLoaderImpl:247 no households file set in config, not loading households
2018-04-08 23:03:57,537  INFO ScenarioLoaderImpl:258 no household-attributes file set in config, not loading any household attributes
2018-04-08 23:03:57,538  INFO ScenarioLoaderImpl:284 no transit schedule file set in config, not loading any transit schedule
2018-04-08 23:03:57,538  INFO ScenarioLoaderImpl:311 no transit vehicles file set in config, not loading any transit vehicles
2018-04-08 23:04:01,225  INFO SimStepParallelEventsManagerImpl:79 number of threads=1
2018-04-08 23:04:01,252  INFO EventsManagerImpl:144 adding Event-Handler: org.matsim.core.trafficmonitoring.TravelTimeCalculator
2018-04-08 23:04:01,253  INFO EventsManagerImpl:148   org.matsim.api.core.v01.events.handler.LinkEnterEventHandler
2018-04-08 23:04:01,254  INFO EventsManagerImpl:207     > org.matsim.api.core.v01.events.LinkEnterEvent
2018-04-08 23:04:01,255  INFO EventsManagerImpl:148   org.matsim.api.core.v01.events.handler.LinkLeaveEventHandler
2018-04-08 23:04:01,256  INFO EventsManagerImpl:207     > org.matsim.api.core.v01.events.LinkLeaveEvent
2018-04-08 23:04:01,269  INFO EventsManagerImpl:148   org.matsim.api.core.v01.events.handler.VehicleEntersTrafficEventHandler
2018-04-08 23:04:01,270  INFO EventsManagerImpl:207     > org.matsim.api.core.v01.events.VehicleEntersTrafficEvent
2018-04-08 23:04:01,270  INFO EventsManagerImpl:148   org.matsim.api.core.v01.events.handler.VehicleLeavesTrafficEventHandler
2018-04-08 23:04:01,271  INFO EventsManagerImpl:207     > org.matsim.api.core.v01.events.VehicleLeavesTrafficEvent
2018-04-08 23:04:01,272  INFO EventsManagerImpl:148   org.matsim.core.api.experimental.events.handler.VehicleArrivesAtFacilityEventHandler
2018-04-08 23:04:01,272  INFO EventsManagerImpl:207     > org.matsim.core.api.experimental.events.VehicleArrivesAtFacilityEvent
2018-04-08 23:04:01,273  INFO EventsManagerImpl:148   org.matsim.api.core.v01.events.handler.VehicleAbortsEventHandler
2018-04-08 23:04:01,284  INFO EventsManagerImpl:207     > org.matsim.api.core.v01.events.VehicleAbortsEvent
2018-04-08 23:04:01,285  INFO EventsManagerImpl:156 
2018-04-08 23:04:01,285  INFO EventsManagerImpl:144 adding Event-Handler: org.matsim.core.trafficmonitoring.TravelTimeCalculator
2018-04-08 23:04:01,286  INFO EventsManagerImpl:148   org.matsim.api.core.v01.events.handler.LinkEnterEventHandler
2018-04-08 23:04:01,287  INFO EventsManagerImpl:207     > org.matsim.api.core.v01.events.LinkEnterEvent
2018-04-08 23:04:01,296  INFO EventsManagerImpl:148   org.matsim.api.core.v01.events.handler.LinkLeaveEventHandler
2018-04-08 23:04:01,297  INFO EventsManagerImpl:207     > org.matsim.api.core.v01.events.LinkLeaveEvent
2018-04-08 23:04:01,310  INFO EventsManagerImpl:148   org.matsim.api.core.v01.events.handler.VehicleEntersTrafficEventHandler
2018-04-08 23:04:01,311  INFO EventsManagerImpl:207     > org.matsim.api.core.v01.events.VehicleEntersTrafficEvent
2018-04-08 23:04:01,311  INFO EventsManagerImpl:148   org.matsim.api.core.v01.events.handler.VehicleLeavesTrafficEventHandler
2018-04-08 23:04:01,312  INFO EventsManagerImpl:207     > org.matsim.api.core.v01.events.VehicleLeavesTrafficEvent
2018-04-08 23:04:01,314  INFO EventsManagerImpl:148   org.matsim.core.api.experimental.events.handler.VehicleArrivesAtFacilityEventHandler
2018-04-08 23:04:01,318  INFO EventsManagerImpl:207     > org.matsim.core.api.experimental.events.VehicleArrivesAtFacilityEvent
2018-04-08 23:04:01,319  INFO EventsManagerImpl:148   org.matsim.api.core.v01.events.handler.VehicleAbortsEventHandler
2018-04-08 23:04:01,319  INFO EventsManagerImpl:207     > org.matsim.api.core.v01.events.VehicleAbortsEvent
2018-04-08 23:04:01,320  INFO EventsManagerImpl:156 
2018-04-08 23:04:01,368  INFO StrategyManager:59 global innovation switch off after iteration: 2147483647
2018-04-08 23:04:01,370  INFO GenericStrategyManager:350 setting PlanSelectorForRemoval to class org.matsim.core.replanning.selectors.WorstPlanForRemovalSelector
2018-04-08 23:04:01,386  INFO EventsManagerImpl:144 adding Event-Handler: org.matsim.core.scoring.EventsToActivities
2018-04-08 23:04:01,387  INFO EventsManagerImpl:148   org.matsim.api.core.v01.events.handler.ActivityStartEventHandler
2018-04-08 23:04:01,388  INFO EventsManagerImpl:207     > org.matsim.api.core.v01.events.ActivityStartEvent
2018-04-08 23:04:01,389  INFO EventsManagerImpl:148   org.matsim.api.core.v01.events.handler.ActivityEndEventHandler
2018-04-08 23:04:01,390  INFO EventsManagerImpl:207     > org.matsim.api.core.v01.events.ActivityEndEvent
2018-04-08 23:04:01,391  INFO EventsManagerImpl:156 
2018-04-08 23:04:01,393  INFO EventsManagerImpl:144 adding Event-Handler: org.matsim.core.scoring.EventsToActivities
2018-04-08 23:04:01,394  INFO EventsManagerImpl:148   org.matsim.api.core.v01.events.handler.ActivityStartEventHandler
2018-04-08 23:04:01,395  INFO EventsManagerImpl:207     > org.matsim.api.core.v01.events.ActivityStartEvent
2018-04-08 23:04:01,400  INFO EventsManagerImpl:148   org.matsim.api.core.v01.events.handler.ActivityEndEventHandler
2018-04-08 23:04:01,401  INFO EventsManagerImpl:207     > org.matsim.api.core.v01.events.ActivityEndEvent
2018-04-08 23:04:01,401  INFO EventsManagerImpl:156 
2018-04-08 23:04:01,404  INFO EventsManagerImpl:144 adding Event-Handler: org.matsim.core.scoring.EventsToLegs
2018-04-08 23:04:01,406  INFO EventsManagerImpl:148   org.matsim.api.core.v01.events.handler.PersonDepartureEventHandler
2018-04-08 23:04:01,407  INFO EventsManagerImpl:207     > org.matsim.api.core.v01.events.PersonDepartureEvent
2018-04-08 23:04:01,408  INFO EventsManagerImpl:148   org.matsim.api.core.v01.events.handler.PersonArrivalEventHandler
2018-04-08 23:04:01,410  INFO EventsManagerImpl:207     > org.matsim.api.core.v01.events.PersonArrivalEvent
2018-04-08 23:04:01,411  INFO EventsManagerImpl:148   org.matsim.api.core.v01.events.handler.LinkLeaveEventHandler
2018-04-08 23:04:01,412  INFO EventsManagerImpl:207     > org.matsim.api.core.v01.events.LinkLeaveEvent
2018-04-08 23:04:01,413  INFO EventsManagerImpl:148   org.matsim.api.core.v01.events.handler.LinkEnterEventHandler
2018-04-08 23:04:01,414  INFO EventsManagerImpl:207     > org.matsim.api.core.v01.events.LinkEnterEvent
2018-04-08 23:04:01,416  INFO EventsManagerImpl:148   org.matsim.core.api.experimental.events.handler.TeleportationArrivalEventHandler
2018-04-08 23:04:01,417  INFO EventsManagerImpl:207     > org.matsim.core.api.experimental.events.TeleportationArrivalEvent
2018-04-08 23:04:01,418  INFO EventsManagerImpl:148   org.matsim.api.core.v01.events.handler.TransitDriverStartsEventHandler
2018-04-08 23:04:01,419  INFO EventsManagerImpl:207     > org.matsim.api.core.v01.events.TransitDriverStartsEvent
2018-04-08 23:04:01,421  INFO EventsManagerImpl:148   org.matsim.api.core.v01.events.handler.PersonEntersVehicleEventHandler
2018-04-08 23:04:01,422  INFO EventsManagerImpl:207     > org.matsim.api.core.v01.events.PersonEntersVehicleEvent
2018-04-08 23:04:01,424  INFO EventsManagerImpl:148   org.matsim.core.api.experimental.events.handler.VehicleArrivesAtFacilityEventHandler
2018-04-08 23:04:01,425  INFO EventsManagerImpl:207     > org.matsim.core.api.experimental.events.VehicleArrivesAtFacilityEvent
2018-04-08 23:04:01,426  INFO EventsManagerImpl:148   org.matsim.api.core.v01.events.handler.VehicleEntersTrafficEventHandler
2018-04-08 23:04:01,427  INFO EventsManagerImpl:207     > org.matsim.api.core.v01.events.VehicleEntersTrafficEvent
2018-04-08 23:04:01,429  INFO EventsManagerImpl:148   org.matsim.api.core.v01.events.handler.VehicleLeavesTrafficEventHandler
2018-04-08 23:04:01,430  INFO EventsManagerImpl:207     > org.matsim.api.core.v01.events.VehicleLeavesTrafficEvent
2018-04-08 23:04:01,441  INFO EventsManagerImpl:156 
2018-04-08 23:04:01,449  INFO EventsManagerImpl:144 adding Event-Handler: org.matsim.core.scoring.EventsToLegs
2018-04-08 23:04:01,450  INFO EventsManagerImpl:148   org.matsim.api.core.v01.events.handler.PersonDepartureEventHandler
2018-04-08 23:04:01,450  INFO EventsManagerImpl:207     > org.matsim.api.core.v01.events.PersonDepartureEvent
2018-04-08 23:04:01,451  INFO EventsManagerImpl:148   org.matsim.api.core.v01.events.handler.PersonArrivalEventHandler
2018-04-08 23:04:01,452  INFO EventsManagerImpl:207     > org.matsim.api.core.v01.events.PersonArrivalEvent
2018-04-08 23:04:01,452  INFO EventsManagerImpl:148   org.matsim.api.core.v01.events.handler.LinkLeaveEventHandler
2018-04-08 23:04:01,453  INFO EventsManagerImpl:207     > org.matsim.api.core.v01.events.LinkLeaveEvent
2018-04-08 23:04:01,453  INFO EventsManagerImpl:148   org.matsim.api.core.v01.events.handler.LinkEnterEventHandler
2018-04-08 23:04:01,454  INFO EventsManagerImpl:207     > org.matsim.api.core.v01.events.LinkEnterEvent
2018-04-08 23:04:01,455  INFO EventsManagerImpl:148   org.matsim.core.api.experimental.events.handler.TeleportationArrivalEventHandler
2018-04-08 23:04:01,455  INFO EventsManagerImpl:207     > org.matsim.core.api.experimental.events.TeleportationArrivalEvent
2018-04-08 23:04:01,456  INFO EventsManagerImpl:148   org.matsim.api.core.v01.events.handler.TransitDriverStartsEventHandler
2018-04-08 23:04:01,456  INFO EventsManagerImpl:207     > org.matsim.api.core.v01.events.TransitDriverStartsEvent
2018-04-08 23:04:01,457  INFO EventsManagerImpl:148   org.matsim.api.core.v01.events.handler.PersonEntersVehicleEventHandler
2018-04-08 23:04:01,475  INFO EventsManagerImpl:207     > org.matsim.api.core.v01.events.PersonEntersVehicleEvent
2018-04-08 23:04:01,476  INFO EventsManagerImpl:148   org.matsim.core.api.experimental.events.handler.VehicleArrivesAtFacilityEventHandler
2018-04-08 23:04:01,476  INFO EventsManagerImpl:207     > org.matsim.core.api.experimental.events.VehicleArrivesAtFacilityEvent
2018-04-08 23:04:01,477  INFO EventsManagerImpl:148   org.matsim.api.core.v01.events.handler.VehicleEntersTrafficEventHandler
2018-04-08 23:04:01,477  INFO EventsManagerImpl:207     > org.matsim.api.core.v01.events.VehicleEntersTrafficEvent
2018-04-08 23:04:01,478  INFO EventsManagerImpl:148   org.matsim.api.core.v01.events.handler.VehicleLeavesTrafficEventHandler
2018-04-08 23:04:01,478  INFO EventsManagerImpl:207     > org.matsim.api.core.v01.events.VehicleLeavesTrafficEvent
2018-04-08 23:04:01,479  INFO EventsManagerImpl:156 
2018-04-08 23:04:01,481  INFO EventsManagerImpl:144 adding Event-Handler: org.matsim.core.scoring.ScoringFunctionsForPopulation
2018-04-08 23:04:01,481  INFO EventsManagerImpl:148   org.matsim.core.events.handler.BasicEventHandler
2018-04-08 23:04:01,503  INFO EventsManagerImpl:207     > org.matsim.api.core.v01.events.Event
2018-04-08 23:04:01,504  INFO EventsManagerImpl:148   org.matsim.core.scoring.EventsToLegs$LegHandler
2018-04-08 23:04:01,505  INFO EventsManagerImpl:148   org.matsim.core.scoring.EventsToActivities$ActivityHandler
2018-04-08 23:04:01,505  INFO EventsManagerImpl:156 
2018-04-08 23:04:01,506  INFO EventsManagerImpl:144 adding Event-Handler: org.matsim.core.scoring.ScoringFunctionsForPopulation
2018-04-08 23:04:01,506  INFO EventsManagerImpl:148   org.matsim.core.events.handler.BasicEventHandler
2018-04-08 23:04:01,507  INFO EventsManagerImpl:207     > org.matsim.api.core.v01.events.Event
2018-04-08 23:04:01,507  INFO EventsManagerImpl:148   org.matsim.core.scoring.EventsToLegs$LegHandler
2018-04-08 23:04:01,508  INFO EventsManagerImpl:148   org.matsim.core.scoring.EventsToActivities$ActivityHandler
2018-04-08 23:04:01,508  INFO EventsManagerImpl:156 
2018-04-08 23:04:01,512  INFO MatsimXmlParser:155 starting to parse xml from url jar:file:/root/workspace/matsim-org/matsim/363810719/.m2/org/matsim/matsim-examples/0.11.0-SNAPSHOT/matsim-examples-0.11.0-SNAPSHOT.jar!/test/scenarios/triangle/counts.xml ...
2018-04-08 23:04:01,539  INFO MatsimCountsReader:85 using counts_v1-reader.
2018-04-08 23:04:01,540  INFO MatsimXmlParser:270 Trying to load http://matsim.org/files/dtd/counts_v1.xsd. In some cases (e.g. network interface up but no connection), this may take a bit.
2018-04-08 23:04:01,751  INFO CalcLinkStats:151  resetting `count' to zero.  This info is here since we want to check when this is happening during normal simulation runs.  kai, jan'11
2018-04-08 23:04:01,755  INFO EventsManagerImpl:144 adding Event-Handler: org.matsim.analysis.VolumesAnalyzer
2018-04-08 23:04:01,755  INFO EventsManagerImpl:148   org.matsim.api.core.v01.events.handler.LinkLeaveEventHandler
2018-04-08 23:04:01,757  INFO EventsManagerImpl:207     > org.matsim.api.core.v01.events.LinkLeaveEvent
2018-04-08 23:04:01,757  INFO EventsManagerImpl:148   org.matsim.api.core.v01.events.handler.VehicleEntersTrafficEventHandler
2018-04-08 23:04:01,758  INFO EventsManagerImpl:207     > org.matsim.api.core.v01.events.VehicleEntersTrafficEvent
2018-04-08 23:04:01,759  INFO EventsManagerImpl:156 
2018-04-08 23:04:01,760  INFO EventsManagerImpl:144 adding Event-Handler: org.matsim.analysis.VolumesAnalyzer
2018-04-08 23:04:01,760  INFO EventsManagerImpl:148   org.matsim.api.core.v01.events.handler.LinkLeaveEventHandler
2018-04-08 23:04:01,760  INFO EventsManagerImpl:207     > org.matsim.api.core.v01.events.LinkLeaveEvent
2018-04-08 23:04:01,761  INFO EventsManagerImpl:148   org.matsim.api.core.v01.events.handler.VehicleEntersTrafficEventHandler
2018-04-08 23:04:01,761  INFO EventsManagerImpl:207     > org.matsim.api.core.v01.events.VehicleEntersTrafficEvent
2018-04-08 23:04:01,762  INFO EventsManagerImpl:156 
2018-04-08 23:04:01,763  INFO EventsManagerImpl:144 adding Event-Handler: org.matsim.analysis.LegHistogram
2018-04-08 23:04:01,763  INFO EventsManagerImpl:148   org.matsim.api.core.v01.events.handler.PersonDepartureEventHandler
2018-04-08 23:04:01,763  INFO EventsManagerImpl:207     > org.matsim.api.core.v01.events.PersonDepartureEvent
2018-04-08 23:04:01,764  INFO EventsManagerImpl:148   org.matsim.api.core.v01.events.handler.PersonArrivalEventHandler
2018-04-08 23:04:01,764  INFO EventsManagerImpl:207     > org.matsim.api.core.v01.events.PersonArrivalEvent
2018-04-08 23:04:01,765  INFO EventsManagerImpl:148   org.matsim.api.core.v01.events.handler.PersonStuckEventHandler
2018-04-08 23:04:01,765  INFO EventsManagerImpl:207     > org.matsim.api.core.v01.events.PersonStuckEvent
2018-04-08 23:04:01,766  INFO EventsManagerImpl:156 
2018-04-08 23:04:01,766  INFO EventsManagerImpl:144 adding Event-Handler: org.matsim.analysis.LegHistogram
2018-04-08 23:04:01,767  INFO EventsManagerImpl:148   org.matsim.api.core.v01.events.handler.PersonDepartureEventHandler
2018-04-08 23:04:01,767  INFO EventsManagerImpl:207     > org.matsim.api.core.v01.events.PersonDepartureEvent
2018-04-08 23:04:01,767  INFO EventsManagerImpl:148   org.matsim.api.core.v01.events.handler.PersonArrivalEventHandler
2018-04-08 23:04:01,768  INFO EventsManagerImpl:207     > org.matsim.api.core.v01.events.PersonArrivalEvent
2018-04-08 23:04:01,768  INFO EventsManagerImpl:148   org.matsim.api.core.v01.events.handler.PersonStuckEventHandler
2018-04-08 23:04:01,769  INFO EventsManagerImpl:207     > org.matsim.api.core.v01.events.PersonStuckEvent
2018-04-08 23:04:01,769  INFO EventsManagerImpl:156 
2018-04-08 23:04:01,770  INFO EventsManagerImpl:144 adding Event-Handler: org.matsim.analysis.CalcLegTimes
2018-04-08 23:04:01,771  INFO EventsManagerImpl:148   org.matsim.api.core.v01.events.handler.PersonDepartureEventHandler
2018-04-08 23:04:01,772  INFO EventsManagerImpl:207     > org.matsim.api.core.v01.events.PersonDepartureEvent
2018-04-08 23:04:01,772  INFO EventsManagerImpl:148   org.matsim.api.core.v01.events.handler.PersonArrivalEventHandler
2018-04-08 23:04:01,773  INFO EventsManagerImpl:207     > org.matsim.api.core.v01.events.PersonArrivalEvent
2018-04-08 23:04:01,773  INFO EventsManagerImpl:148   org.matsim.api.core.v01.events.handler.ActivityEndEventHandler
2018-04-08 23:04:01,773  INFO EventsManagerImpl:207     > org.matsim.api.core.v01.events.ActivityEndEvent
2018-04-08 23:04:01,774  INFO EventsManagerImpl:148   org.matsim.api.core.v01.events.handler.ActivityStartEventHandler
2018-04-08 23:04:01,774  INFO EventsManagerImpl:207     > org.matsim.api.core.v01.events.ActivityStartEvent
2018-04-08 23:04:01,775  INFO EventsManagerImpl:156 
2018-04-08 23:04:01,775  INFO EventsManagerImpl:144 adding Event-Handler: org.matsim.analysis.CalcLegTimes
2018-04-08 23:04:01,776  INFO EventsManagerImpl:148   org.matsim.api.core.v01.events.handler.PersonDepartureEventHandler
2018-04-08 23:04:01,776  INFO EventsManagerImpl:207     > org.matsim.api.core.v01.events.PersonDepartureEvent
2018-04-08 23:04:01,776  INFO EventsManagerImpl:148   org.matsim.api.core.v01.events.handler.PersonArrivalEventHandler
2018-04-08 23:04:01,777  INFO EventsManagerImpl:207     > org.matsim.api.core.v01.events.PersonArrivalEvent
2018-04-08 23:04:01,778  INFO EventsManagerImpl:148   org.matsim.api.core.v01.events.handler.ActivityEndEventHandler
2018-04-08 23:04:01,778  INFO EventsManagerImpl:207     > org.matsim.api.core.v01.events.ActivityEndEvent
2018-04-08 23:04:01,778  INFO EventsManagerImpl:148   org.matsim.api.core.v01.events.handler.ActivityStartEventHandler
2018-04-08 23:04:01,779  INFO EventsManagerImpl:207     > org.matsim.api.core.v01.events.ActivityStartEvent
2018-04-08 23:04:01,779  INFO EventsManagerImpl:156 
2018-04-08 23:04:01,788  INFO AbstractController:52 Used Controler-Class: org.matsim.core.controler.NewControler
2018-04-08 23:04:01,789  INFO Config:534 ConfigConsistencyChecker with runtime type=class org.matsim.core.config.consistency.ConfigConsistencyCheckerImpl was already added; not adding it a second time
2018-04-08 23:04:01,791  INFO Injector:80 === printInjector start ===
2018-04-08 23:04:01,791  INFO Injector:84 org.matsim.core.mobsim.framework.Mobsim 
2018-04-08 23:04:01,795  INFO Injector:85   --> provider: FactoryProxy{key=Key[type=org.matsim.core.mobsim.framework.Mobsim, annotation=[none]], provider=com.google.inject.internal.ConstructorBindingImpl$Factory@1fb46b2b}
2018-04-08 23:04:01,795  INFO Injector:86   --> source: org.matsim.counts.CountsControlerListenerTest$3.install(CountsControlerListenerTest.java:372)
2018-04-08 23:04:01,796  INFO Injector:88   --> scope: Scopes.NO_SCOPE
2018-04-08 23:04:01,796  INFO Injector:92 
2018-04-08 23:04:01,796  INFO Injector:84 org.matsim.api.core.v01.Scenario 
2018-04-08 23:04:01,797  INFO Injector:85   --> provider: of(org.matsim.core.scenario.MutableScenario@4eece814)
2018-04-08 23:04:01,797  INFO Injector:86   --> source: org.matsim.core.scenario.ScenarioByInstanceModule.install(ScenarioByInstanceModule.java:31)
2018-04-08 23:04:01,797  INFO Injector:88   --> scope: eager singleton
2018-04-08 23:04:01,797  INFO Injector:92 
2018-04-08 23:04:01,798  INFO Injector:84 org.matsim.api.core.v01.network.Network 
2018-04-08 23:04:01,803  INFO Injector:85   --> provider: @Provides org.matsim.core.scenario.ScenarioByInstanceModule.provideNetwork(ScenarioByInstanceModule.java:39)
2018-04-08 23:04:01,803  INFO Injector:86   --> source: org.matsim.api.core.v01.network.Network org.matsim.core.scenario.ScenarioByInstanceModule.provideNetwork(org.matsim.api.core.v01.Scenario)
2018-04-08 23:04:01,803  INFO Injector:88   --> scope: Scopes.NO_SCOPE
2018-04-08 23:04:01,804  INFO Injector:92 
2018-04-08 23:04:01,804  INFO Injector:84 org.matsim.api.core.v01.population.Population 
2018-04-08 23:04:01,804  INFO Injector:85   --> provider: @Provides org.matsim.core.scenario.ScenarioByInstanceModule.providePopulation(ScenarioByInstanceModule.java:43)
2018-04-08 23:04:01,805  INFO Injector:86   --> source: org.matsim.api.core.v01.population.Population org.matsim.core.scenario.ScenarioByInstanceModule.providePopulation(org.matsim.api.core.v01.Scenario)
2018-04-08 23:04:01,805  INFO Injector:88   --> scope: Scopes.NO_SCOPE
2018-04-08 23:04:01,805  INFO Injector:92 
2018-04-08 23:04:01,805  INFO Injector:84 org.matsim.api.core.v01.population.PopulationFactory 
2018-04-08 23:04:01,806  INFO Injector:85   --> provider: @Provides org.matsim.core.scenario.ScenarioByInstanceModule.providePopulationFactory(ScenarioByInstanceModule.java:47)
2018-04-08 23:04:01,806  INFO Injector:86   --> source: org.matsim.api.core.v01.population.PopulationFactory org.matsim.core.scenario.ScenarioByInstanceModule.providePopulationFactory(org.matsim.api.core.v01.population.Population)
2018-04-08 23:04:01,806  INFO Injector:88   --> scope: Scopes.NO_SCOPE
2018-04-08 23:04:01,806  INFO Injector:92 
2018-04-08 23:04:01,807  INFO Injector:84 org.matsim.facilities.ActivityFacilities 
2018-04-08 23:04:01,807  INFO Injector:85   --> provider: @Provides org.matsim.core.scenario.ScenarioByInstanceModule.provideActivityFacilities(ScenarioByInstanceModule.java:51)
2018-04-08 23:04:01,807  INFO Injector:86   --> source: org.matsim.facilities.ActivityFacilities org.matsim.core.scenario.ScenarioByInstanceModule.provideActivityFacilities(org.matsim.api.core.v01.Scenario)
2018-04-08 23:04:01,808  INFO Injector:88   --> scope: Scopes.NO_SCOPE
2018-04-08 23:04:01,808  INFO Injector:92 
2018-04-08 23:04:01,808  INFO Injector:84 org.matsim.households.Households 
2018-04-08 23:04:01,808  INFO Injector:85   --> provider: @Provides org.matsim.core.scenario.ScenarioByInstanceModule.provideHouseholds(ScenarioByInstanceModule.java:56)
2018-04-08 23:04:01,809  INFO Injector:86   --> source: org.matsim.households.Households org.matsim.core.scenario.ScenarioByInstanceModule.provideHouseholds(org.matsim.api.core.v01.Scenario)
2018-04-08 23:04:01,809  INFO Injector:88   --> scope: Scopes.NO_SCOPE
2018-04-08 23:04:01,809  INFO Injector:92 
2018-04-08 23:04:01,810  INFO Injector:84 org.matsim.vehicles.Vehicles 
2018-04-08 23:04:01,810  INFO Injector:85   --> provider: @Provides org.matsim.core.scenario.ScenarioByInstanceModule.provideVehicles(ScenarioByInstanceModule.java:61)
2018-04-08 23:04:01,810  INFO Injector:86   --> source: org.matsim.vehicles.Vehicles org.matsim.core.scenario.ScenarioByInstanceModule.provideVehicles(org.matsim.api.core.v01.Scenario)
2018-04-08 23:04:01,810  INFO Injector:88   --> scope: Scopes.NO_SCOPE
2018-04-08 23:04:01,811  INFO Injector:92 
2018-04-08 23:04:01,811  INFO Injector:84 org.matsim.lanes.data.Lanes 
2018-04-08 23:04:01,811  INFO Injector:85   --> provider: @Provides org.matsim.core.scenario.ScenarioByInstanceModule.provideLanes(ScenarioByInstanceModule.java:66)
2018-04-08 23:04:01,811  INFO Injector:86   --> source: org.matsim.lanes.data.Lanes org.matsim.core.scenario.ScenarioByInstanceModule.provideLanes(org.matsim.api.core.v01.Scenario)
2018-04-08 23:04:01,812  INFO Injector:88   --> scope: Scopes.NO_SCOPE
2018-04-08 23:04:01,812  INFO Injector:92 
2018-04-08 23:04:01,812  INFO Injector:84 org.matsim.core.controler.ControlerI 
2018-04-08 23:04:01,813  INFO Injector:85   --> provider: FactoryProxy{key=Key[type=org.matsim.core.controler.ControlerI, annotation=[none]], provider=com.google.inject.internal.ConstructorBindingImpl$Factory@140113c9}[Scopes.SINGLETON]
2018-04-08 23:04:01,813  INFO Injector:86   --> source: org.matsim.core.controler.NewControlerModule.install(NewControlerModule.java:8)
2018-04-08 23:04:01,813  INFO Injector:88   --> scope: eager singleton
2018-04-08 23:04:01,814  INFO Injector:92 
2018-04-08 23:04:01,814  INFO Injector:84 org.matsim.core.controler.ControlerListenerManager 
2018-04-08 23:04:01,814  INFO Injector:85   --> provider: FactoryProxy{key=Key[type=org.matsim.core.controler.ControlerListenerManager, annotation=[none]], provider=com.google.inject.internal.ConstructorBindingImpl$Factory@43807aaa[Scopes.SINGLETON]}
2018-04-08 23:04:01,814  INFO Injector:86   --> source: org.matsim.core.controler.NewControlerModule.install(NewControlerModule.java:10)
2018-04-08 23:04:01,815  INFO Injector:88   --> scope: Scopes.NO_SCOPE
2018-04-08 23:04:01,815  INFO Injector:92 
2018-04-08 23:04:01,815  INFO Injector:84 org.matsim.core.controler.PrepareForSim 
2018-04-08 23:04:01,815  INFO Injector:85   --> provider: FactoryProxy{key=Key[type=org.matsim.core.controler.PrepareForSim, annotation=[none]], provider=com.google.inject.internal.ConstructorBindingImpl$Factory@7437ef72}
2018-04-08 23:04:01,816  INFO Injector:86   --> source: org.matsim.core.controler.NewControlerModule.install(NewControlerModule.java:11)
2018-04-08 23:04:01,816  INFO Injector:88   --> scope: Scopes.NO_SCOPE
2018-04-08 23:04:01,816  INFO Injector:92 
2018-04-08 23:04:01,816  INFO Injector:84 org.matsim.core.controler.TerminationCriterion 
2018-04-08 23:04:01,817  INFO Injector:85   --> provider: FactoryProxy{key=Key[type=org.matsim.core.controler.TerminationCriterion, annotation=[none]], provider=com.google.inject.internal.ConstructorBindingImpl$Factory@792b5c7f}
2018-04-08 23:04:01,817  INFO Injector:86   --> source: org.matsim.core.controler.NewControlerModule.install(NewControlerModule.java:14)
2018-04-08 23:04:01,817  INFO Injector:88   --> scope: Scopes.NO_SCOPE
2018-04-08 23:04:01,817  INFO Injector:92 
2018-04-08 23:04:01,818  INFO Injector:84 org.matsim.core.controler.MatsimServices 
2018-04-08 23:04:01,818  INFO Injector:85   --> provider: FactoryProxy{key=Key[type=org.matsim.core.controler.MatsimServices, annotation=[none]], provider=com.google.inject.internal.ConstructorBindingImpl$Factory@3caf5215}
2018-04-08 23:04:01,818  INFO Injector:86   --> source: org.matsim.core.controler.NewControlerModule.install(NewControlerModule.java:15)
2018-04-08 23:04:01,818  INFO Injector:88   --> scope: Scopes.NO_SCOPE
2018-04-08 23:04:01,819  INFO Injector:92 
2018-04-08 23:04:01,819  INFO Injector:84 org.matsim.core.controler.corelisteners.PlansScoring 
2018-04-08 23:04:01,819  INFO Injector:85   --> provider: FactoryProxy{key=Key[type=org.matsim.core.controler.corelisteners.PlansScoring, annotation=[none]], provider=com.google.inject.internal.ConstructorBindingImpl$Factory@7b36a869[Scopes.SINGLETON]}
2018-04-08 23:04:01,819  INFO Injector:86   --> source: org.matsim.core.scoring.PlansScoringModule.install(PlansScoringModule.java:11)
2018-04-08 23:04:01,820  INFO Injector:88   --> scope: Scopes.NO_SCOPE
2018-04-08 23:04:01,820  INFO Injector:92 
2018-04-08 23:04:01,820  INFO Injector:84 org.matsim.core.controler.corelisteners.PlansReplanning 
2018-04-08 23:04:01,821  INFO Injector:85   --> provider: FactoryProxy{key=Key[type=org.matsim.core.controler.corelisteners.PlansReplanning, annotation=[none]], provider=com.google.inject.internal.ConstructorBindingImpl$Factory@4b4856be[Scopes.SINGLETON]}
2018-04-08 23:04:01,821  INFO Injector:86   --> source: org.matsim.core.controler.corelisteners.ControlerDefaultCoreListenersModule.install(ControlerDefaultCoreListenersModule.java:38)
2018-04-08 23:04:01,821  INFO Injector:88   --> scope: Scopes.NO_SCOPE
2018-04-08 23:04:01,821  INFO Injector:92 
2018-04-08 23:04:01,825  INFO Injector:84 org.matsim.core.controler.corelisteners.PlansDumping 
2018-04-08 23:04:01,826  INFO Injector:85   --> provider: FactoryProxy{key=Key[type=org.matsim.core.controler.corelisteners.PlansDumping, annotation=[none]], provider=com.google.inject.internal.ConstructorBindingImpl$Factory@7960416e[Scopes.SINGLETON]}
2018-04-08 23:04:01,826  INFO Injector:86   --> source: org.matsim.core.controler.corelisteners.ControlerDefaultCoreListenersModule.install(ControlerDefaultCoreListenersModule.java:39)
2018-04-08 23:04:01,826  INFO Injector:88   --> scope: Scopes.NO_SCOPE
2018-04-08 23:04:01,826  INFO Injector:92 
2018-04-08 23:04:01,827  INFO Injector:84 org.matsim.core.controler.corelisteners.EventsHandling 
2018-04-08 23:04:01,827  INFO Injector:85   --> provider: FactoryProxy{key=Key[type=org.matsim.core.controler.corelisteners.EventsHandling, annotation=[none]], provider=com.google.inject.internal.ConstructorBindingImpl$Factory@15b823c[Scopes.SINGLETON]}