nopolinfo #0
location: FailureLocation{className='tutorial.fixedTimeSignals.CreateSignalInputExampleWithLanesTest', failingMethods=[tutorial.fixedTimeSignals.CreateSignalInputExampleWithLanesTest#testCreateSignalInputExampleWithLanes], erroringMethods=[], failures=[FailureType{failureName='java.lang.AssertionError', failureDetail='different lane files expected:<1002495994> but was:<3279231523>', isError=false}], nbFailures=1, nbErrors=0}
status: NOPATCH
dateEnd: Fri Aug 11 21:18:51 CEST 2017
allocatedtime: 120minutes 
passingTime: 1minutes 
nb patches: 0
nopol context: Config{synthesisDepth=3, collectStaticMethods=true, collectStaticFields=false, collectLiterals=false, onlyOneSynthesisResult=false, sortExpressions=true, maxLineInvocationPerTest=250, timeoutMethodInvocation=2000, dataCollectionTimeoutInSecondForSynthesis=900, addWeight=0.19478, subWeight=0.04554, mulWeight=0.0102, divWeight=0.00613, andWeight=0.10597, orWeight=0.05708, eqWeight=0.22798, nEqWeight=0.0, lessEqWeight=0.0255, lessWeight=0.0947, methodCallWeight=0.1, fieldAccessWeight=0.08099, constantWeight=0.14232, variableWeight=0.05195, mode=REPAIR, type=COND_THEN_PRE, synthesis=DYNAMOTH, oracle=ANGELIC, solver=Z3, solverPath='./z3_for_linux', projectSources=[/root/workspace/matsim-org/matsim/263529106/contribs/signals/src/main/java], projectClasspath='[Ljava.net.URL;@5489c777', projectTests=[tutorial.fixedTimeSignals.CreateSignalInputExampleWithLanesTest], complianceLevel=8, outputFolder=null, json=false}
exception: null
nbStatements: 10
nbAngelicValues: 7
ignoreStatus: NOTHING_TO_IGNORE
----------



nopolinfo #1
location: FailureLocation{className='org.matsim.contrib.signals.oneagent.QSimSignalTest', failingMethods=[], erroringMethods=[org.matsim.contrib.signals.oneagent.QSimSignalTest#testSignalSystems1AgentGreenAtSec100, org.matsim.contrib.signals.oneagent.QSimSignalTest#testTrafficLightIntersection2arms1AgentV20, org.matsim.contrib.signals.oneagent.QSimSignalTest#testIntergreensNoAbortOneAgentDriving], failures=[FailureType{failureName='java.lang.RuntimeException', failureDetail='javax.xml.bind.UnmarshalException
 - with linked exception:
[org.xml.sax.SAXParseException; lineNumber: 12; columnNumber: 16; cvc-complex-type.2.4.b: The content of element 'lane' is not complete. One of '{"http://www.matsim.org/files/dtd":attributes}' is expected.]', isError=true}, FailureType{failureName='java.lang.RuntimeException', failureDetail='javax.xml.bind.UnmarshalException
 - with linked exception:
[org.xml.sax.SAXParseException; lineNumber: 12; columnNumber: 16; cvc-complex-type.2.4.b: The content of element 'lane' is not complete. One of '{"http://www.matsim.org/files/dtd":attributes}' is expected.]', isError=true}, FailureType{failureName='java.lang.RuntimeException', failureDetail='javax.xml.bind.UnmarshalException
 - with linked exception:
[org.xml.sax.SAXParseException; lineNumber: 12; columnNumber: 16; cvc-complex-type.2.4.b: The content of element 'lane' is not complete. One of '{"http://www.matsim.org/files/dtd":attributes}' is expected.]', isError=true}], nbFailures=0, nbErrors=3}
status: NOPATCH
dateEnd: Fri Aug 11 21:20:45 CEST 2017
allocatedtime: 119minutes 
passingTime: 1minutes 
nb patches: 0
nopol context: Config{synthesisDepth=3, collectStaticMethods=true, collectStaticFields=false, collectLiterals=false, onlyOneSynthesisResult=false, sortExpressions=true, maxLineInvocationPerTest=250, timeoutMethodInvocation=2000, dataCollectionTimeoutInSecondForSynthesis=900, addWeight=0.19478, subWeight=0.04554, mulWeight=0.0102, divWeight=0.00613, andWeight=0.10597, orWeight=0.05708, eqWeight=0.22798, nEqWeight=0.0, lessEqWeight=0.0255, lessWeight=0.0947, methodCallWeight=0.1, fieldAccessWeight=0.08099, constantWeight=0.14232, variableWeight=0.05195, mode=REPAIR, type=COND_THEN_PRE, synthesis=DYNAMOTH, oracle=ANGELIC, solver=Z3, solverPath='./z3_for_linux', projectSources=[/root/workspace/matsim-org/matsim/263529106/contribs/signals/src/main/java], projectClasspath='[Ljava.net.URL;@4aa21f9d', projectTests=[org.matsim.contrib.signals.oneagent.QSimSignalTest], complianceLevel=8, outputFolder=null, json=false}
exception: null
nbStatements: 12
nbAngelicValues: 8
ignoreStatus: NOTHING_TO_IGNORE
----------



nopolinfo #2
location: FailureLocation{className='org.matsim.contrib.signals.TravelTimeFourWaysTest', failingMethods=[], erroringMethods=[org.matsim.contrib.signals.TravelTimeFourWaysTest#testTrafficLightIntersection4armsWithUTurn, org.matsim.contrib.signals.TravelTimeFourWaysTest#testTrafficLightIntersection4arms], failures=[FailureType{failureName='java.lang.RuntimeException', failureDetail='javax.xml.bind.UnmarshalException
 - with linked exception:
[org.xml.sax.SAXParseException; lineNumber: 14; columnNumber: 16; cvc-complex-type.2.4.b: The content of element 'lane' is not complete. One of '{"http://www.matsim.org/files/dtd":attributes}' is expected.]', isError=true}, FailureType{failureName='java.lang.RuntimeException', failureDetail='javax.xml.bind.UnmarshalException
 - with linked exception:
[org.xml.sax.SAXParseException; lineNumber: 14; columnNumber: 16; cvc-complex-type.2.4.b: The content of element 'lane' is not complete. One of '{"http://www.matsim.org/files/dtd":attributes}' is expected.]', isError=true}], nbFailures=0, nbErrors=2}
status: NOPATCH
dateEnd: Fri Aug 11 21:25:51 CEST 2017
allocatedtime: 119minutes 
passingTime: 5minutes 
nb patches: 0
nopol context: Config{synthesisDepth=3, collectStaticMethods=true, collectStaticFields=false, collectLiterals=false, onlyOneSynthesisResult=false, sortExpressions=true, maxLineInvocationPerTest=250, timeoutMethodInvocation=2000, dataCollectionTimeoutInSecondForSynthesis=900, addWeight=0.19478, subWeight=0.04554, mulWeight=0.0102, divWeight=0.00613, andWeight=0.10597, orWeight=0.05708, eqWeight=0.22798, nEqWeight=0.0, lessEqWeight=0.0255, lessWeight=0.0947, methodCallWeight=0.1, fieldAccessWeight=0.08099, constantWeight=0.14232, variableWeight=0.05195, mode=REPAIR, type=COND_THEN_PRE, synthesis=DYNAMOTH, oracle=ANGELIC, solver=Z3, solverPath='./z3_for_linux', projectSources=[/root/workspace/matsim-org/matsim/263529106/contribs/signals/src/main/java], projectClasspath='[Ljava.net.URL;@49cd946c', projectTests=[org.matsim.contrib.signals.TravelTimeFourWaysTest], complianceLevel=8, outputFolder=null, json=false}
exception: null
nbStatements: 34
nbAngelicValues: 23
ignoreStatus: NOTHING_TO_IGNORE
----------



nopolinfo #3
location: FailureLocation{className='org.matsim.contrib.signals.oneagent.ControlerTest', failingMethods=[], erroringMethods=[org.matsim.contrib.signals.oneagent.ControlerTest#testModifySignalControlDataOnsetOffset], failures=[FailureType{failureName='java.lang.RuntimeException', failureDetail='javax.xml.bind.UnmarshalException
 - with linked exception:
[org.xml.sax.SAXParseException; lineNumber: 12; columnNumber: 16; cvc-complex-type.2.4.b: The content of element 'lane' is not complete. One of '{"http://www.matsim.org/files/dtd":attributes}' is expected.]', isError=true}], nbFailures=0, nbErrors=1}
status: NOPATCH
dateEnd: Fri Aug 11 21:26:55 CEST 2017
allocatedtime: 116minutes 
passingTime: 1minutes 
nb patches: 0
nopol context: Config{synthesisDepth=3, collectStaticMethods=true, collectStaticFields=false, collectLiterals=false, onlyOneSynthesisResult=false, sortExpressions=true, maxLineInvocationPerTest=250, timeoutMethodInvocation=2000, dataCollectionTimeoutInSecondForSynthesis=900, addWeight=0.19478, subWeight=0.04554, mulWeight=0.0102, divWeight=0.00613, andWeight=0.10597, orWeight=0.05708, eqWeight=0.22798, nEqWeight=0.0, lessEqWeight=0.0255, lessWeight=0.0947, methodCallWeight=0.1, fieldAccessWeight=0.08099, constantWeight=0.14232, variableWeight=0.05195, mode=REPAIR, type=COND_THEN_PRE, synthesis=DYNAMOTH, oracle=ANGELIC, solver=Z3, solverPath='./z3_for_linux', projectSources=[/root/workspace/matsim-org/matsim/263529106/contribs/signals/src/main/java], projectClasspath='[Ljava.net.URL;@639cb788', projectTests=[org.matsim.contrib.signals.oneagent.ControlerTest], complianceLevel=8, outputFolder=null, json=false}
exception: null
nbStatements: 6
nbAngelicValues: 5
ignoreStatus: NOTHING_TO_IGNORE
----------



