nopolinfo #0
location: FailureLocation{className='org.matsim.contrib.freight.carrier.CarrierVehicleTypeReaderWithDtdV1Test', failingMethods=[], erroringMethods=[org.matsim.contrib.freight.carrier.CarrierVehicleTypeReaderWithDtdV1Test#test_whenReadingTypeLight_itReadsDescriptionCorrectly, org.matsim.contrib.freight.carrier.CarrierVehicleTypeReaderWithDtdV1Test#test_whenReadingTypeLight_itReadsCapacityCorrectly, org.matsim.contrib.freight.carrier.CarrierVehicleTypeReaderWithDtdV1Test#test_whenReadingTypes_itReadyExactlyTheTypesFromFile, org.matsim.contrib.freight.carrier.CarrierVehicleTypeReaderWithDtdV1Test#test_whenReadingTypeMedium_itReadsDescriptionCorrectly, org.matsim.contrib.freight.carrier.CarrierVehicleTypeReaderWithDtdV1Test#test_whenReadingTypeMedium_itReadsCostInfoCorrectly, org.matsim.contrib.freight.carrier.CarrierVehicleTypeReaderWithDtdV1Test#test_whenReadingTypeLight_itReadsMaxVelocityCorrectly, org.matsim.contrib.freight.carrier.CarrierVehicleTypeReaderWithDtdV1Test#test_whenReadingTypeLight_itReadsCostInfoCorrectly, org.matsim.contrib.freight.carrier.CarrierVehicleTypeReaderWithDtdV1Test#test_whenReadingTypeLight_itReadsEngineInfoCorrectly, org.matsim.contrib.freight.carrier.CarrierVehicleTypeReaderWithDtdV1Test#test_whenReadingTypes_nuOfTypesIsReadCorrectly, org.matsim.contrib.freight.carrier.CarrierVehicleTypeReaderWithDtdV1Test#test_whenReadingTypeMedium_itReadsCapacityCorrectly, org.matsim.contrib.freight.carrier.CarrierVehicleTypeReaderWithDtdV1Test#test_whenReadingTypeMedium_itReadsMaxVelocityCorrectly, org.matsim.contrib.freight.carrier.CarrierVehicleTypeReaderWithDtdV1Test#test_whenReadingTypeMedium_itReadsEngineInfoCorrectly], failures=[FailureType{failureName='org.matsim.core.utils.io.UncheckedIOException', failureDetail='org.xml.sax.SAXParseException; systemId: http://www.matsim.org/files/dtd/carrierVehicleTypes_v1.dtd; lineNumber: 1; columnNumber: 3; The markup declarations contained or pointed to by the document type declaration must be well-formed.', isError=true}, FailureType{failureName='org.matsim.core.utils.io.UncheckedIOException', failureDetail='org.xml.sax.SAXParseException; systemId: http://www.matsim.org/files/dtd/carrierVehicleTypes_v1.dtd; lineNumber: 1; columnNumber: 3; The markup declarations contained or pointed to by the document type declaration must be well-formed.', isError=true}, FailureType{failureName='org.matsim.core.utils.io.UncheckedIOException', failureDetail='org.xml.sax.SAXParseException; systemId: http://www.matsim.org/files/dtd/carrierVehicleTypes_v1.dtd; lineNumber: 1; columnNumber: 3; The markup declarations contained or pointed to by the document type declaration must be well-formed.', isError=true}, FailureType{failureName='org.matsim.core.utils.io.UncheckedIOException', failureDetail='org.xml.sax.SAXParseException; systemId: http://www.matsim.org/files/dtd/carrierVehicleTypes_v1.dtd; lineNumber: 1; columnNumber: 3; The markup declarations contained or pointed to by the document type declaration must be well-formed.', isError=true}, FailureType{failureName='org.matsim.core.utils.io.UncheckedIOException', failureDetail='org.xml.sax.SAXParseException; systemId: http://www.matsim.org/files/dtd/carrierVehicleTypes_v1.dtd; lineNumber: 1; columnNumber: 3; The markup declarations contained or pointed to by the document type declaration must be well-formed.', isError=true}, FailureType{failureName='org.matsim.core.utils.io.UncheckedIOException', failureDetail='org.xml.sax.SAXParseException; systemId: http://www.matsim.org/files/dtd/carrierVehicleTypes_v1.dtd; lineNumber: 1; columnNumber: 3; The markup declarations contained or pointed to by the document type declaration must be well-formed.', isError=true}, FailureType{failureName='org.matsim.core.utils.io.UncheckedIOException', failureDetail='org.xml.sax.SAXParseException; systemId: http://www.matsim.org/files/dtd/carrierVehicleTypes_v1.dtd; lineNumber: 1; columnNumber: 3; The markup declarations contained or pointed to by the document type declaration must be well-formed.', isError=true}, FailureType{failureName='org.matsim.core.utils.io.UncheckedIOException', failureDetail='org.xml.sax.SAXParseException; systemId: http://www.matsim.org/files/dtd/carrierVehicleTypes_v1.dtd; lineNumber: 1; columnNumber: 3; The markup declarations contained or pointed to by the document type declaration must be well-formed.', isError=true}, FailureType{failureName='org.matsim.core.utils.io.UncheckedIOException', failureDetail='org.xml.sax.SAXParseException; systemId: http://www.matsim.org/files/dtd/carrierVehicleTypes_v1.dtd; lineNumber: 1; columnNumber: 3; The markup declarations contained or pointed to by the document type declaration must be well-formed.', isError=true}, FailureType{failureName='org.matsim.core.utils.io.UncheckedIOException', failureDetail='org.xml.sax.SAXParseException; systemId: http://www.matsim.org/files/dtd/carrierVehicleTypes_v1.dtd; lineNumber: 1; columnNumber: 3; The markup declarations contained or pointed to by the document type declaration must be well-formed.', isError=true}, FailureType{failureName='org.matsim.core.utils.io.UncheckedIOException', failureDetail='org.xml.sax.SAXParseException; systemId: http://www.matsim.org/files/dtd/carrierVehicleTypes_v1.dtd; lineNumber: 1; columnNumber: 3; The markup declarations contained or pointed to by the document type declaration must be well-formed.', isError=true}, FailureType{failureName='org.matsim.core.utils.io.UncheckedIOException', failureDetail='org.xml.sax.SAXParseException; systemId: http://www.matsim.org/files/dtd/carrierVehicleTypes_v1.dtd; lineNumber: 1; columnNumber: 3; The markup declarations contained or pointed to by the document type declaration must be well-formed.', isError=true}], nbFailures=0, nbErrors=12}
status: NOPATCH
dateEnd: Wed Mar 14 13:39:43 CET 2018
allocatedtime: 120minutes 
passingTime: 0minutes 
nb patches: 0
nopol context: Config{synthesisDepth=3, collectStaticMethods=true, collectStaticFields=false, collectLiterals=false, onlyOneSynthesisResult=false, sortExpressions=true, maxLineInvocationPerTest=250, timeoutMethodInvocation=2000, dataCollectionTimeoutInSecondForSynthesis=900, addWeight=0.19478, subWeight=0.04554, mulWeight=0.0102, divWeight=0.00613, andWeight=0.10597, orWeight=0.05708, eqWeight=0.22798, nEqWeight=0.0, lessEqWeight=0.0255, lessWeight=0.0947, methodCallWeight=0.1, fieldAccessWeight=0.08099, constantWeight=0.14232, variableWeight=0.05195, mode=REPAIR, type=COND_THEN_PRE, synthesis=DYNAMOTH, oracle=ANGELIC, solver=Z3, solverPath='./z3_for_linux', projectSources=[/root/workspace/matsim-org/matsim/353295705/contribs/freight/src/main/java], projectClasspath='[Ljava.net.URL;@15deb1dc', projectTests=[org.matsim.contrib.freight.carrier.CarrierVehicleTypeReaderWithDtdV1Test], complianceLevel=8, outputFolder=./workspace/matsim-org/matsim/353295705, json=false}
exception: null
nbStatements: 0
nbAngelicValues: 0
ignoreStatus: NOTHING_TO_IGNORE
----------



nopolinfo #1
location: FailureLocation{className='org.matsim.contrib.freight.carrier.CarrierVehicleTypeReaderTest', failingMethods=[], erroringMethods=[org.matsim.contrib.freight.carrier.CarrierVehicleTypeReaderTest#test_whenReadingTypeMedium_itReadsCapacityCorrectly, org.matsim.contrib.freight.carrier.CarrierVehicleTypeReaderTest#test_whenReadingTypeMedium_itReadsEngineInfoCorrectly, org.matsim.contrib.freight.carrier.CarrierVehicleTypeReaderTest#test_whenReadingTypes_itReadyExactlyTheTypesFromFile, org.matsim.contrib.freight.carrier.CarrierVehicleTypeReaderTest#test_whenReadingTypes_nuOfTypesIsReadCorrectly, org.matsim.contrib.freight.carrier.CarrierVehicleTypeReaderTest#test_whenReadingTypeMedium_itReadsCostInfoCorrectly, org.matsim.contrib.freight.carrier.CarrierVehicleTypeReaderTest#test_whenReadingTypeMedium_itReadsDescriptionCorrectly], failures=[FailureType{failureName='org.matsim.core.utils.io.UncheckedIOException', failureDetail='org.xml.sax.SAXParseException; systemId: http://www.matsim.org/files/dtd/carrierVehicleTypes_v1.dtd; lineNumber: 1; columnNumber: 3; The markup declarations contained or pointed to by the document type declaration must be well-formed.', isError=true}, FailureType{failureName='org.matsim.core.utils.io.UncheckedIOException', failureDetail='org.xml.sax.SAXParseException; systemId: http://www.matsim.org/files/dtd/carrierVehicleTypes_v1.dtd; lineNumber: 1; columnNumber: 3; The markup declarations contained or pointed to by the document type declaration must be well-formed.', isError=true}, FailureType{failureName='org.matsim.core.utils.io.UncheckedIOException', failureDetail='org.xml.sax.SAXParseException; systemId: http://www.matsim.org/files/dtd/carrierVehicleTypes_v1.dtd; lineNumber: 1; columnNumber: 3; The markup declarations contained or pointed to by the document type declaration must be well-formed.', isError=true}, FailureType{failureName='org.matsim.core.utils.io.UncheckedIOException', failureDetail='org.xml.sax.SAXParseException; systemId: http://www.matsim.org/files/dtd/carrierVehicleTypes_v1.dtd; lineNumber: 1; columnNumber: 3; The markup declarations contained or pointed to by the document type declaration must be well-formed.', isError=true}, FailureType{failureName='org.matsim.core.utils.io.UncheckedIOException', failureDetail='org.xml.sax.SAXParseException; systemId: http://www.matsim.org/files/dtd/carrierVehicleTypes_v1.dtd; lineNumber: 1; columnNumber: 3; The markup declarations contained or pointed to by the document type declaration must be well-formed.', isError=true}, FailureType{failureName='org.matsim.core.utils.io.UncheckedIOException', failureDetail='org.xml.sax.SAXParseException; systemId: http://www.matsim.org/files/dtd/carrierVehicleTypes_v1.dtd; lineNumber: 1; columnNumber: 3; The markup declarations contained or pointed to by the document type declaration must be well-formed.', isError=true}], nbFailures=0, nbErrors=6}
status: NOPATCH
dateEnd: Wed Mar 14 13:39:46 CET 2018
allocatedtime: 120minutes 
passingTime: 0minutes 
nb patches: 0
nopol context: Config{synthesisDepth=3, collectStaticMethods=true, collectStaticFields=false, collectLiterals=false, onlyOneSynthesisResult=false, sortExpressions=true, maxLineInvocationPerTest=250, timeoutMethodInvocation=2000, dataCollectionTimeoutInSecondForSynthesis=900, addWeight=0.19478, subWeight=0.04554, mulWeight=0.0102, divWeight=0.00613, andWeight=0.10597, orWeight=0.05708, eqWeight=0.22798, nEqWeight=0.0, lessEqWeight=0.0255, lessWeight=0.0947, methodCallWeight=0.1, fieldAccessWeight=0.08099, constantWeight=0.14232, variableWeight=0.05195, mode=REPAIR, type=COND_THEN_PRE, synthesis=DYNAMOTH, oracle=ANGELIC, solver=Z3, solverPath='./z3_for_linux', projectSources=[/root/workspace/matsim-org/matsim/353295705/contribs/freight/src/main/java], projectClasspath='[Ljava.net.URL;@4a67b4ec', projectTests=[org.matsim.contrib.freight.carrier.CarrierVehicleTypeReaderTest], complianceLevel=8, outputFolder=./workspace/matsim-org/matsim/353295705, json=false}
exception: null
nbStatements: 0
nbAngelicValues: 0
ignoreStatus: NOTHING_TO_IGNORE
----------



nopolinfo #2
location: FailureLocation{className='org.matsim.contrib.freight.carrier.CarrierVehicleTypeLoaderTest', failingMethods=[], erroringMethods=[org.matsim.contrib.freight.carrier.CarrierVehicleTypeLoaderTest#test_whenLoadingTypes_allAssignmentsInMediumVehicleAreCorrectly, org.matsim.contrib.freight.carrier.CarrierVehicleTypeLoaderTest#test_whenLoadingTypes_allAssignmentsInLightVehicleAreCorrectly], failures=[FailureType{failureName='org.matsim.core.utils.io.UncheckedIOException', failureDetail='org.xml.sax.SAXParseException; systemId: http://www.matsim.org/files/dtd/carrierVehicleTypes_v1.dtd; lineNumber: 1; columnNumber: 3; The markup declarations contained or pointed to by the document type declaration must be well-formed.', isError=true}, FailureType{failureName='org.matsim.core.utils.io.UncheckedIOException', failureDetail='org.xml.sax.SAXParseException; systemId: http://www.matsim.org/files/dtd/carrierVehicleTypes_v1.dtd; lineNumber: 1; columnNumber: 3; The markup declarations contained or pointed to by the document type declaration must be well-formed.', isError=true}], nbFailures=0, nbErrors=2}
status: NOPATCH
dateEnd: Wed Mar 14 13:39:48 CET 2018
allocatedtime: 120minutes 
passingTime: 0minutes 
nb patches: 0
nopol context: Config{synthesisDepth=3, collectStaticMethods=true, collectStaticFields=false, collectLiterals=false, onlyOneSynthesisResult=false, sortExpressions=true, maxLineInvocationPerTest=250, timeoutMethodInvocation=2000, dataCollectionTimeoutInSecondForSynthesis=900, addWeight=0.19478, subWeight=0.04554, mulWeight=0.0102, divWeight=0.00613, andWeight=0.10597, orWeight=0.05708, eqWeight=0.22798, nEqWeight=0.0, lessEqWeight=0.0255, lessWeight=0.0947, methodCallWeight=0.1, fieldAccessWeight=0.08099, constantWeight=0.14232, variableWeight=0.05195, mode=REPAIR, type=COND_THEN_PRE, synthesis=DYNAMOTH, oracle=ANGELIC, solver=Z3, solverPath='./z3_for_linux', projectSources=[/root/workspace/matsim-org/matsim/353295705/contribs/freight/src/main/java], projectClasspath='[Ljava.net.URL;@40ac6b76', projectTests=[org.matsim.contrib.freight.carrier.CarrierVehicleTypeLoaderTest], complianceLevel=8, outputFolder=./workspace/matsim-org/matsim/353295705, json=false}
exception: null
nbStatements: 0
nbAngelicValues: 0
ignoreStatus: NOTHING_TO_IGNORE
----------



nopolinfo #3
location: FailureLocation{className='org.matsim.contrib.freight.carrier.CarrierVehicleTypeWriterTest', failingMethods=[], erroringMethods=[org.matsim.contrib.freight.carrier.CarrierVehicleTypeWriterTest#testTypeWriter], failures=[FailureType{failureName='org.matsim.core.utils.io.UncheckedIOException', failureDetail='org.xml.sax.SAXParseException; systemId: http://www.matsim.org/files/dtd/carrierVehicleTypes_v1.dtd; lineNumber: 1; columnNumber: 3; The markup declarations contained or pointed to by the document type declaration must be well-formed.', isError=true}], nbFailures=0, nbErrors=1}
status: NOPATCH
dateEnd: Wed Mar 14 13:39:50 CET 2018
allocatedtime: 120minutes 
passingTime: 0minutes 
nb patches: 0
nopol context: Config{synthesisDepth=3, collectStaticMethods=true, collectStaticFields=false, collectLiterals=false, onlyOneSynthesisResult=false, sortExpressions=true, maxLineInvocationPerTest=250, timeoutMethodInvocation=2000, dataCollectionTimeoutInSecondForSynthesis=900, addWeight=0.19478, subWeight=0.04554, mulWeight=0.0102, divWeight=0.00613, andWeight=0.10597, orWeight=0.05708, eqWeight=0.22798, nEqWeight=0.0, lessEqWeight=0.0255, lessWeight=0.0947, methodCallWeight=0.1, fieldAccessWeight=0.08099, constantWeight=0.14232, variableWeight=0.05195, mode=REPAIR, type=COND_THEN_PRE, synthesis=DYNAMOTH, oracle=ANGELIC, solver=Z3, solverPath='./z3_for_linux', projectSources=[/root/workspace/matsim-org/matsim/353295705/contribs/freight/src/main/java], projectClasspath='[Ljava.net.URL;@b5aa65b', projectTests=[org.matsim.contrib.freight.carrier.CarrierVehicleTypeWriterTest], complianceLevel=8, outputFolder=./workspace/matsim-org/matsim/353295705, json=false}
exception: null
nbStatements: 0
nbAngelicValues: 0
ignoreStatus: NOTHING_TO_IGNORE
----------



