<?xml version="1.0" encoding="utf-8"?>
<!DOCTYPE population SYSTEM "http://www.matsim.org/files/dtd/population_v5.dtd">

<population>

<!-- ====================================================================== -->

	<person id="1">
		<plan selected="yes">
			<act type="h" link="1" />
			<leg mode="car">
				<route type="links" start_link="1" end_link="1" trav_time="undefined" distance="NaN" vehicleId="