<?xml version="1.0" encoding="utf-8"?>
<!DOCTYPE population SYSTEM "http://www.matsim.org/files/dtd/population_v6.dtd">

<population>



<!-- ====================================================================== -->

	<person id="Donald Trump">
		<attributes>
			<attribute name="brain" class="java.lang.Boolean" >false</attribute>
			<attribute name="party" class="java.lang.String" >republican</attribute>
		</attributes>
	</person>

<!-- ====================================================================== -->

</population>
