<?xml version="1.0" encoding="utf-8"?>
<!DOCTYPE population SYSTEM "http://www.matsim.org/files/dtd/population_v5.dtd">

<population>

<!-- ====================================================================== -->

	<person id="1">
		<plan selected="yes">
			<act type="h" link="1" />
			<leg mode="walk">
				<route type="generic" start_link="1" end_link="4" trav_time="01:00:00" distance="100.0"></route>
			</leg>
			<act type="h" link="2" />
		</plan>

	</person>

<!-- ====================================================================== -->

</population>
