<?xml version="1.0" encoding="utf-8"?>
<!DOCTYPE population SYSTEM "http://www.matsim.org/files/dtd/population_v6.dtd">

<population>



<!-- ====================================================================== -->

	<person id="Donald Trump">
		<plan selected="yes">
			<activity type="speech" x="0.0" y="0.0" >
			</activity>
			<activity type="tweet" x="0.0" y="0.0" z="-100.0" >
			</activity>
		</plan>

	</person>

<!-- ====================================================================== -->

</population>
