<?xml version="1.0" encoding="utf-8"?>
<!DOCTYPE plans SYSTEM "http://www.matsim.org/files/dtd/plans_v4.dtd">

<plans>

<!-- ====================================================================== -->

	<person id="1">
		<plan selected="yes">
			<act type="h" link="1" />
			<leg mode="undefined">
				<route trav_time="00:02:03">
					
				</route>
			</leg>
			<act type="h" link="1" />
		</plan>

	</person>

<!-- ====================================================================== -->

</plans>
