<?xml version="1.0" encoding="utf-8"?>
<!DOCTYPE population SYSTEM "http://www.matsim.org/files/dtd/population_v6.dtd">

<population>



<!-- ====================================================================== -->

	<person id="1">
		<plan selected="yes">
			<activity type="h" link="1" end_time="09:00:00" >
			</activity>
			<leg mode="car">
			</leg>
			<activity type="w" link="3" end_time="19:00:00" >
			</activity>
			<leg mode="car">
			</leg>
			<activity type="h" link="1" >
			</activity>
		</plan>

	</person>

<!-- ====================================================================== -->

	<person id="2">
		<plan selected="yes">
			<activity type="h" link="1" end_time="09:00:00" >
			</activity>
			<leg mode="car">
			</leg>
			<activity type="w" link="3" end_time="19:00:00" >
			</activity>
			<leg mode="car">
			</leg>
			<activity type="h" link="1" >
			</activity>
		</plan>

	</person>

<!-- ====================================================================== -->

	<person id="3">
		<plan selected="yes">
			<activity type="h" link="1" end_time="09:00:00" >
			</activity>
			<leg mode="car">
			</leg>
			<activity type="w" link="3" end_time="19:00:00" >
			</activity>
			<leg mode="car">
			</leg>
			<activity type="h" link="1" >
			</activity>
		</plan>

	</person>

<!-- ====================================================================== -->

	<person id="4">
		<plan selected="yes">
			<activity type="h" link="1" end_time="09:00:00" >
			</activity>
			<leg mode="car">
			</leg>
			<activity type="w" link="3" end_time="19:00:00" >
			</activity>
			<leg mode="car">
			</leg>
			<activity type="h" link="1" >
			</activity>
		</plan>

	</person>

<!-- ====================================================================== -->

	<person id="5">
		<plan selected="yes">
			<activity type="h" link="1" end_time="09:00:00" >
			</activity>
			<leg mode="car">
			</leg>
			<activity type="w" link="3" end_time="19:00:00" >
			</activity>
			<leg mode="car">
			</leg>
			<activity type="h" link="1" >
			</activity>
		</plan>

	</person>

<!-- ====================================================================== -->

	<person id="6">
		<plan selected="yes">
			<activity type="h" link="1" end_time="09:00:00" >
			</activity>
			<leg mode="car">
			</leg>
			<activity type="w" link="3" end_time="19:00:00" >
			</activity>
			<leg mode="car">
			</leg>
			<activity type="h" link="1" >
			</activity>
		</plan>

	</person>

<!-- ====================================================================== -->

</population>
