<?xml version="1.0" encoding="UTF-8"?>
<!DOCTYPE network SYSTEM "http://www.matsim.org/files/dtd/network_v2.dtd">
<network>

<!-- ====================================================================== -->

	<nodes>
		<node id="1" x="0.0" y="0.0" >
		</node>
		<node id="2" x="1000.0" y="0.0" >
		</node>
	</nodes>

<!-- ====================================================================== -->

	<links capperiod="01:00:00" effectivecellsize="7.5" effectivelanewidth="3.75">
		<link id="1" from="1" to="2" length="1000.0" freespeed="10.0" capacity="3600.0" permlanes="1.0" oneway="1" modes="" >
		</link>
	</links>

<!-- ====================================================================== -->

</network>
