<?xml version="1.0" encoding="utf-8"?>
<!DOCTYPE population SYSTEM "http://www.matsim.org/files/dtd/population_v6.dtd">

<population>

	<attributes>
		<attribute name="number" class="java.lang.Integer" >2</attribute>
		<attribute name="type" class="java.lang.String" >candidates</attribute>
	</attributes>


<!-- ====================================================================== -->

</population>
