<?xml version="1.0" encoding="UTF-8"?>
<!DOCTYPE network SYSTEM "http://www.matsim.org/files/dtd/network_v2.dtd">
<network>

<!-- ====================================================================== -->

	<nodes>
		<node id="1" x="45.0" y="45.0" >
		</node>
		<node id="2" x="20.0" y="20.0" >
		</node>
	</nodes>

<!-- ====================================================================== -->

	<links capperiod="01:00:00" effectivecellsize="7.5" effectivelanewidth="3.75">
		<link id="l" from="1" to="2" length="35.35533905932738" freespeed="1.0" capacity="1.0" permlanes="1.0" oneway="1" modes="car" >
		</link>
	</links>

<!-- ====================================================================== -->

</network>
