<?xml version="1.0" encoding="utf-8"?>
<!DOCTYPE population SYSTEM "http://www.matsim.org/files/dtd/population_v6.dtd">

<population>



<!-- ====================================================================== -->

	<person id="Donald Trump">
		<plan selected="yes">
				<attributes>
					<attribute name="beauty" class="java.lang.Double" >1.0E-6</attribute>
				</attributes>
			<activity type="speech" link="1" >
			</activity>
			<leg mode="SUV">
			</leg>
			<activity type="tweet" link="2" >
			</activity>
		</plan>

	</person>

<!-- ====================================================================== -->

</population>
