<?xml version="1.0" encoding="utf-8"?>
<!DOCTYPE population SYSTEM "http://www.matsim.org/files/dtd/population_v6.dtd">

<population>



<!-- ====================================================================== -->

	<person id="Donald Trump">
		<plan selected="yes">
			<activity type="speech" x="0.0" y="0.0" >
				<attributes>
					<attribute name="length" class="java.lang.Long" >1895</attribute>
					<attribute name="makes sense" class="java.lang.Boolean" >false</attribute>
				</attributes>
			</activity>
		</plan>

	</person>

<!-- ====================================================================== -->

</population>
