<?xml version="1.0" encoding="utf-8"?>
<!DOCTYPE population SYSTEM "http://www.matsim.org/files/dtd/population_v6.dtd">

<population>



<!-- ====================================================================== -->

	<person id="1">
		<attributes>
			<attribute name="otherAttribute" class="org.matsim.core.scenario.ScenarioByConfigInjectionTest.StupidClass" >just some stupid instance</attribute>
		</attributes>
		<plan selected="yes">
			<activity type="type" x="0.0" y="0.0" >
				<attributes>
					<attribute name="actAttribute" class="org.matsim.core.scenario.ScenarioByConfigInjectionTest.StupidClass" >just some stupid instance</attribute>
				</attributes>
			</activity>
			<leg mode="mode">
				<attributes>
					<attribute name="legAttribute" class="org.matsim.core.scenario.ScenarioByConfigInjectionTest.StupidClass" >just some stupid instance</attribute>
				</attributes>
			</leg>
			<activity type="type" x="0.0" y="0.0" >
			</activity>
		</plan>

	</person>

<!-- ====================================================================== -->

</population>
