<?xml version="1.0" encoding="UTF-8"?>
<!DOCTYPE facilities SYSTEM "http://www.matsim.org/files/dtd/facilities_v1.dtd">
<facilities>

<!-- ====================================================================== -->

	<facility id="1" linkId="Abc" x="10.0" y="15.0">
		<attributes>
			<attribute name="population" class="java.lang.Integer" >1000</attribute>
		</attributes>
	</facility>

<!-- ====================================================================== -->

	<facility id="2" linkId="Def" x="20.0" y="25.0">
		<attributes>
			<attribute name="population" class="java.lang.Integer" >1200</attribute>
		</attributes>
	</facility>

<!-- ====================================================================== -->

	<facility id="3" x="30.0" y="35.0">
		<attributes>
			<attribute name="owner" class="java.lang.String" >pepsiCo</attribute>
		</attributes>
	</facility>

<!-- ====================================================================== -->

</facilities>
