<?xml version="1.0" encoding="UTF-8"?>
<!DOCTYPE network SYSTEM "http://www.matsim.org/files/dtd/network_v2.dtd">
<network>

	<attributes>
		<attribute name="year" class="java.lang.Integer" >2016</attribute>
	</attributes>
<!-- ====================================================================== -->

	<nodes>
		<node id="Teltow" x="1.0" y="1.0" z="1.0" >
			<attributes>
				<attribute name="Developper Meeting" class="java.lang.Boolean" >true</attribute>
				<attribute name="Internet" class="java.lang.String" >not so good</attribute>
			</attributes>
		</node>
		<node id="Zurich" x="0.0" y="0.0" z="400.0" >
			<attributes>
				<attribute name="Developper Meeting" class="java.lang.Boolean" >false</attribute>
				<attribute name="Internet" class="java.lang.String" >good</attribute>
			</attributes>
		</node>
	</nodes>

<!-- ====================================================================== -->

	<links capperiod="01:00:00" effectivecellsize="7.5" effectivelanewidth="3.75">
		<link id="trip" from="Zurich" to="Teltow" length="5000.0" freespeed="1.0" capacity="1.0" permlanes="1.0" oneway="1" modes="car" >
			<attributes>
				<attribute name="number of modes" class="java.lang.Integer" >3</attribute>
			</attributes>
		</link>
	</links>

<!-- ====================================================================== -->

</network>
