<?xml version="1.0" encoding="utf-8"?>
<!DOCTYPE population SYSTEM "http://www.matsim.org/files/dtd/population_v6.dtd">

<population>



<!-- ====================================================================== -->

	<person id="0">
		<plan score="0.0" selected="yes">
		</plan>

		<plan score="1.0" selected="no">
		</plan>

		<plan score="2.0" selected="no">
		</plan>

		<plan score="3.0" selected="no">
		</plan>

		<plan score="4.0" selected="no">
		</plan>

		<plan score="5.0" selected="no">
		</plan>

		<plan score="6.0" selected="no">
		</plan>

		<plan score="7.0" selected="no">
		</plan>

		<plan score="8.0" selected="no">
		</plan>

		<plan score="9.0" selected="no">
		</plan>

	</person>

<!-- ====================================================================== -->

	<person id="1">
		<plan score="0.0" selected="yes">
		</plan>

		<plan score="1.0" selected="no">
		</plan>

		<plan score="2.0" selected="no">
		</plan>

		<plan score="3.0" selected="no">
		</plan>

		<plan score="4.0" selected="no">
		</plan>

		<plan score="5.0" selected="no">
		</plan>

		<plan score="6.0" selected="no">
		</plan>

		<plan score="7.0" selected="no">
		</plan>

		<plan score="8.0" selected="no">
		</plan>

		<plan score="9.0" selected="no">
		</plan>

	</person>

<!-- ====================================================================== -->

	<person id="10">
		<plan score="0.0" selected="yes">
		</plan>

		<plan score="1.0" selected="no">
		</plan>

		<plan score="2.0" selected="no">
		</plan>

		<plan score="3.0" selected="no">
		</plan>

		<plan score="4.0" selected="no">
		</plan>

		<plan score="5.0" selected="no">
		</plan>

		<plan score="6.0" selected="no">
		</plan>

		<plan score="7.0" selected="no">
		</plan>

		<plan score="8.0" selected="no">
		</plan>

		<plan score="9.0" selected="no">
		</plan>

	</person>

<!-- ====================================================================== -->

	<person id="100">
		<plan score="0.0" selected="yes">
		</plan>

		<plan score="1.0" selected="no">
		</plan>

		<plan score="2.0" selected="no">
		</plan>

		<plan score="3.0" selected="no">
		</plan>

		<plan score="4.0" selected="no">
		</plan>

		<plan score="5.0" selected="no">
		</plan>

		<plan score="6.0" selected="no">
		</plan>

		<plan score="7.0" selected="no">
		</plan>

		<plan score="8.0" selected="no">
		</plan>

		<plan score="9.0" selected="no">
		</plan>

	</person>

<!-- ====================================================================== -->

	<person id="1000">
		<plan score="0.0" selected="yes">
		</plan>

		<plan score="1.0" selected="no">
		</plan>

		<plan score="2.0" selected="no">
		</plan>

		<plan score="3.0" selected="no">
		</plan>

		<plan score="4.0" selected="no">
		</plan>

		<plan score="5.0" selected="no">
		</plan>

		<plan score="6.0" selected="no">
		</plan>

		<plan score="7.0" selected="no">
		</plan>

		<plan score="8.0" selected="no">
		</plan>

		<plan score="9.0" selected="no">
		</plan>

	</person>

<!-- ====================================================================== -->

	<person id="1001">
		<plan score="0.0" selected="yes">
		</plan>

		<plan score="1.0" selected="no">
		</plan>

		<plan score="2.0" selected="no">
		</plan>

		<plan score="3.0" selected="no">
		</plan>

		<plan score="4.0" selected="no">
		</plan>

		<plan score="5.0" selected="no">
		</plan>

		<plan score="6.0" selected="no">
		</plan>

		<plan score="7.0" selected="no">
		</plan>

		<plan score="8.0" selected="no">
		</plan>

		<plan score="9.0" selected="no">
		</plan>

	</person>

<!-- ====================================================================== -->

	<person id="1002">
		<plan score="0.0" selected="yes">
		</plan>

		<plan score="1.0" selected="no">
		</plan>

		<plan score="2.0" selected="no">
		</plan>

		<plan score="3.0" selected="no">
		</plan>

		<plan score="4.0" selected="no">
		</plan>

		<plan score="5.0" selected="no">
		</plan>

		<plan score="6.0" selected="no">
		</plan>

		<plan score="7.0" selected="no">
		</plan>

		<plan score="8.0" selected="no">
		</plan>

		<plan score="9.0" selected="no">
		</plan>

	</person>

<!-- ====================================================================== -->

	<person id="1003">
		<plan score="0.0" selected="yes">
		</plan>

		<plan score="1.0" selected="no">
		</plan>

		<plan score="2.0" selected="no">
		</plan>

		<plan score="3.0" selected="no">
		</plan>

		<plan score="4.0" selected="no">
		</plan>

		<plan score="5.0" selected="no">
		</plan>

		<plan score="6.0" selected="no">
		</plan>

		<plan score="7.0" selected="no">
		</plan>

		<plan score="8.0" selected="no">
		</plan>

		<plan score="9.0" selected="no">
		</plan>

	</person>

<!-- ====================================================================== -->

	<person id="1004">
		<plan score="0.0" selected="yes">
		</plan>

		<plan score="1.0" selected="no">
		</plan>

		<plan score="2.0" selected="no">
		</plan>

		<plan score="3.0" selected="no">
		</plan>

		<plan score="4.0" selected="no">
		</plan>

		<plan score="5.0" selected="no">
		</plan>

		<plan score="6.0" selected="no">
		</plan>

		<plan score="7.0" selected="no">
		</plan>

		<plan score="8.0" selected="no">
		</plan>

		<plan score="9.0" selected="no">
		</plan>

	</person>

<!-- ====================================================================== -->

	<person id="1005">
		<plan score="0.0" selected="yes">
		</plan>

		<plan score="1.0" selected="no">
		</plan>

		<plan score="2.0" selected="no">
		</plan>

		<plan score="3.0" selected="no">
		</plan>

		<plan score="4.0" selected="no">
		</plan>

		<plan score="5.0" selected="no">
		</plan>

		<plan score="6.0" selected="no">
		</plan>

		<plan score="7.0" selected="no">
		</plan>

		<plan score="8.0" selected="no">
		</plan>

		<plan score="9.0" selected="no">
		</plan>

	</person>

<!-- ====================================================================== -->

	<person id="1006">
		<plan score="0.0" selected="yes">
		</plan>

		<plan score="1.0" selected="no">
		</plan>

		<plan score="2.0" selected="no">
		</plan>

		<plan score="3.0" selected="no">
		</plan>

		<plan score="4.0" selected="no">
		</plan>

		<plan score="5.0" selected="no">
		</plan>

		<plan score="6.0" selected="no">
		</plan>

		<plan score="7.0" selected="no">
		</plan>

		<plan score="8.0" selected="no">
		</plan>

		<plan score="9.0" selected="no">
		</plan>

	</person>

<!-- ====================================================================== -->

	<person id="1007">
		<plan score="0.0" selected="yes">
		</plan>

		<plan score="1.0" selected="no">
		</plan>

		<plan score="2.0" selected="no">
		</plan>

		<plan score="3.0" selected="no">
		</plan>

		<plan score="4.0" selected="no">
		</plan>

		<plan score="5.0" selected="no">
		</plan>

		<plan score="6.0" selected="no">
		</plan>

		<plan score="7.0" selected="no">
		</plan>

		<plan score="8.0" selected="no">
		</plan>

		<plan score="9.0" selected="no">
		</plan>

	</person>

<!-- ====================================================================== -->

	<person id="1008">
		<plan score="0.0" selected="yes">
		</plan>

		<plan score="1.0" selected="no">
		</plan>

		<plan score="2.0" selected="no">
		</plan>

		<plan score="3.0" selected="no">
		</plan>

		<plan score="4.0" selected="no">
		</plan>

		<plan score="5.0" selected="no">
		</plan>

		<plan score="6.0" selected="no">
		</plan>

		<plan score="7.0" selected="no">
		</plan>

		<plan score="8.0" selected="no">
		</plan>

		<plan score="9.0" selected="no">
		</plan>

	</person>

<!-- ====================================================================== -->

	<person id="1009">
		<plan score="0.0" selected="yes">
		</plan>

		<plan score="1.0" selected="no">
		</plan>

		<plan score="2.0" selected="no">
		</plan>

		<plan score="3.0" selected="no">
		</plan>

		<plan score="4.0" selected="no">
		</plan>

		<plan score="5.0" selected="no">
		</plan>

		<plan score="6.0" selected="no">
		</plan>

		<plan score="7.0" selected="no">
		</plan>

		<plan score="8.0" selected="no">
		</plan>

		<plan score="9.0" selected="no">
		</plan>

	</person>

<!-- ====================================================================== -->

	<person id="101">
		<plan score="0.0" selected="yes">
		</plan>

		<plan score="1.0" selected="no">
		</plan>

		<plan score="2.0" selected="no">
		</plan>

		<plan score="3.0" selected="no">
		</plan>

		<plan score="4.0" selected="no">
		</plan>

		<plan score="5.0" selected="no">
		</plan>

		<plan score="6.0" selected="no">
		</plan>

		<plan score="7.0" selected="no">
		</plan>

		<plan score="8.0" selected="no">
		</plan>

		<plan score="9.0" selected="no">
		</plan>

	</person>

<!-- ====================================================================== -->

	<person id="1010">
		<plan score="0.0" selected="yes">
		</plan>

		<plan score="1.0" selected="no">
		</plan>

		<plan score="2.0" selected="no">
		</plan>

		<plan score="3.0" selected="no">
		</plan>

		<plan score="4.0" selected="no">
		</plan>

		<plan score="5.0" selected="no">
		</plan>

		<plan score="6.0" selected="no">
		</plan>

		<plan score="7.0" selected="no">
		</plan>

		<plan score="8.0" selected="no">
		</plan>

		<plan score="9.0" selected="no">
		</plan>

	</person>

<!-- ====================================================================== -->

	<person id="1011">
		<plan score="0.0" selected="yes">
		</plan>

		<plan score="1.0" selected="no">
		</plan>

		<plan score="2.0" selected="no">
		</plan>

		<plan score="3.0" selected="no">
		</plan>

		<plan score="4.0" selected="no">
		</plan>

		<plan score="5.0" selected="no">
		</plan>

		<plan score="6.0" selected="no">
		</plan>

		<plan score="7.0" selected="no">
		</plan>

		<plan score="8.0" selected="no">
		</plan>

		<plan score="9.0" selected="no">
		</plan>

	</person>

<!-- ====================================================================== -->

	<person id="1012">
		<plan score="0.0" selected="yes">
		</plan>

		<plan score="1.0" selected="no">
		</plan>

		<plan score="2.0" selected="no">
		</plan>

		<plan score="3.0" selected="no">
		</plan>

		<plan score="4.0" selected="no">
		</plan>

		<plan score="5.0" selected="no">
		</plan>

		<plan score="6.0" selected="no">
		</plan>

		<plan score="7.0" selected="no">
		</plan>

		<plan score="8.0" selected="no">
		</plan>

		<plan score="9.0" selected="no">
		</plan>

	</person>

<!-- ====================================================================== -->

	<person id="1013">
		<plan score="0.0" selected="yes">
		</plan>

		<plan score="1.0" selected="no">
		</plan>

		<plan score="2.0" selected="no">
		</plan>

		<plan score="3.0" selected="no">
		</plan>

		<plan score="4.0" selected="no">
		</plan>

		<plan score="5.0" selected="no">
		</plan>

		<plan score="6.0" selected="no">
		</plan>

		<plan score="7.0" selected="no">
		</plan>

		<plan score="8.0" selected="no">
		</plan>

		<plan score="9.0" selected="no">
		</plan>

	</person>

<!-- ====================================================================== -->

	<person id="1014">
		<plan score="0.0" selected="yes">
		</plan>

		<plan score="1.0" selected="no">
		</plan>

		<plan score="2.0" selected="no">
		</plan>

		<plan score="3.0" selected="no">
		</plan>

		<plan score="4.0" selected="no">
		</plan>

		<plan score="5.0" selected="no">
		</plan>

		<plan score="6.0" selected="no">
		</plan>

		<plan score="7.0" selected="no">
		</plan>

		<plan score="8.0" selected="no">
		</plan>

		<plan score="9.0" selected="no">
		</plan>

	</person>

<!-- ====================================================================== -->

	<person id="1015">
		<plan score="0.0" selected="yes">
		</plan>

		<plan score="1.0" selected="no">
		</plan>

		<plan score="2.0" selected="no">
		</plan>

		<plan score="3.0" selected="no">
		</plan>

		<plan score="4.0" selected="no">
		</plan>

		<plan score="5.0" selected="no">
		</plan>

		<plan score="6.0" selected="no">
		</plan>

		<plan score="7.0" selected="no">
		</plan>

		<plan score="8.0" selected="no">
		</plan>

		<plan score="9.0" selected="no">
		</plan>

	</person>

<!-- ====================================================================== -->

	<person id="1016">
		<plan score="0.0" selected="yes">
		</plan>

		<plan score="1.0" selected="no">
		</plan>

		<plan score="2.0" selected="no">
		</plan>

		<plan score="3.0" selected="no">
		</plan>

		<plan score="4.0" selected="no">
		</plan>

		<plan score="5.0" selected="no">
		</plan>

		<plan score="6.0" selected="no">
		</plan>

		<plan score="7.0" selected="no">
		</plan>

		<plan score="8.0" selected="no">
		</plan>

		<plan score="9.0" selected="no">
		</plan>

	</person>

<!-- ====================================================================== -->

	<person id="1017">
		<plan score="0.0" selected="yes">
		</plan>

		<plan score="1.0" selected="no">
		</plan>

		<plan score="2.0" selected="no">
		</plan>

		<plan score="3.0" selected="no">
		</plan>

		<plan score="4.0" selected="no">
		</plan>

		<plan score="5.0" selected="no">
		</plan>

		<plan score="6.0" selected="no">
		</plan>

		<plan score="7.0" selected="no">
		</plan>

		<plan score="8.0" selected="no">
		</plan>

		<plan score="9.0" selected="no">
		</plan>

	</person>

<!-- ====================================================================== -->

	<person id="1018">
		<plan score="0.0" selected="yes">
		</plan>

		<plan score="1.0" selected="no">
		</plan>

		<plan score="2.0" selected="no">
		</plan>

		<plan score="3.0" selected="no">
		</plan>

		<plan score="4.0" selected="no">
		</plan>

		<plan score="5.0" selected="no">
		</plan>

		<plan score="6.0" selected="no">
		</plan>

		<plan score="7.0" selected="no">
		</plan>

		<plan score="8.0" selected="no">
		</plan>

		<plan score="9.0" selected="no">
		</plan>

	</person>

<!-- ====================================================================== -->

	<person id="1019">
		<plan score="0.0" selected="yes">
		</plan>

		<plan score="1.0" selected="no">
		</plan>

		<plan score="2.0" selected="no">
		</plan>

		<plan score="3.0" selected="no">
		</plan>

		<plan score="4.0" selected="no">
		</plan>

		<plan score="5.0" selected="no">
		</plan>

		<plan score="6.0" selected="no">
		</plan>

		<plan score="7.0" selected="no">
		</plan>

		<plan score="8.0" selected="no">
		</plan>

		<plan score="9.0" selected="no">
		</plan>

	</person>

<!-- ====================================================================== -->

	<person id="102">
		<plan score="0.0" selected="yes">
		</plan>

		<plan score="1.0" selected="no">
		</plan>

		<plan score="2.0" selected="no">
		</plan>

		<plan score="3.0" selected="no">
		</plan>

		<plan score="4.0" selected="no">
		</plan>

		<plan score="5.0" selected="no">
		</plan>

		<plan score="6.0" selected="no">
		</plan>

		<plan score="7.0" selected="no">
		</plan>

		<plan score="8.0" selected="no">
		</plan>

		<plan score="9.0" selected="no">
		</plan>

	</person>

<!-- ====================================================================== -->

	<person id="1020">
		<plan score="0.0" selected="yes">
		</plan>

		<plan score="1.0" selected="no">
		</plan>

		<plan score="2.0" selected="no">
		</plan>

		<plan score="3.0" selected="no">
		</plan>

		<plan score="4.0" selected="no">
		</plan>

		<plan score="5.0" selected="no">
		</plan>

		<plan score="6.0" selected="no">
		</plan>

		<plan score="7.0" selected="no">
		</plan>

		<plan score="8.0" selected="no">
		</plan>

		<plan score="9.0" selected="no">
		</plan>

	</person>

<!-- ====================================================================== -->

	<person id="1021">
		<plan score="0.0" selected="yes">
		</plan>

		<plan score="1.0" selected="no">
		</plan>

		<plan score="2.0" selected="no">
		</plan>

		<plan score="3.0" selected="no">
		</plan>

		<plan score="4.0" selected="no">
		</plan>

		<plan score="5.0" selected="no">
		</plan>

		<plan score="6.0" selected="no">
		</plan>

		<plan score="7.0" selected="no">
		</plan>

		<plan score="8.0" selected="no">
		</plan>

		<plan score="9.0" selected="no">
		</plan>

	</person>

<!-- ====================================================================== -->

	<person id="1022">
		<plan score="0.0" selected="yes">
		</plan>

		<plan score="1.0" selected="no">
		</plan>

		<plan score="2.0" selected="no">
		</plan>

		<plan score="3.0" selected="no">
		</plan>

		<plan score="4.0" selected="no">
		</plan>

		<plan score="5.0" selected="no">
		</plan>

		<plan score="6.0" selected="no">
		</plan>

		<plan score="7.0" selected="no">
		</plan>

		<plan score="8.0" selected="no">
		</plan>

		<plan score="9.0" selected="no">
		</plan>

	</person>

<!-- ====================================================================== -->

	<person id="1023">
		<plan score="0.0" selected="yes">
		</plan>

		<plan score="1.0" selected="no">
		</plan>

		<plan score="2.0" selected="no">
		</plan>

		<plan score="3.0" selected="no">
		</plan>

		<plan score="4.0" selected="no">
		</plan>

		<plan score="5.0" selected="no">
		</plan>

		<plan score="6.0" selected="no">
		</plan>

		<plan score="7.0" selected="no">
		</plan>

		<plan score="8.0" selected="no">
		</plan>

		<plan score="9.0" selected="no">
		</plan>

	</person>

<!-- ====================================================================== -->

	<person id="1024">
		<plan score="0.0" selected="yes">
		</plan>

		<plan score="1.0" selected="no">
		</plan>

		<plan score="2.0" selected="no">
		</plan>

		<plan score="3.0" selected="no">
		</plan>

		<plan score="4.0" selected="no">
		</plan>

		<plan score="5.0" selected="no">
		</plan>

		<plan score="6.0" selected="no">
		</plan>

		<plan score="7.0" selected="no">
		</plan>

		<plan score="8.0" selected="no">
		</plan>

		<plan score="9.0" selected="no">
		</plan>

	</person>

<!-- ====================================================================== -->

	<person id="1025">
		<plan score="0.0" selected="yes">
		</plan>

		<plan score="1.0" selected="no">
		</plan>

		<plan score="2.0" selected="no">
		</plan>

		<plan score="3.0" selected="no">
		</plan>

		<plan score="4.0" selected="no">
		</plan>

		<plan score="5.0" selected="no">
		</plan>

		<plan score="6.0" selected="no">
		</plan>

		<plan score="7.0" selected="no">
		</plan>

		<plan score="8.0" selected="no">
		</plan>

		<plan score="9.0" selected="no">
		</plan>

	</person>

<!-- ====================================================================== -->

	<person id="1026">
		<plan score="0.0" selected="yes">
		</plan>

		<plan score="1.0" selected="no">
		</plan>

		<plan score="2.0" selected="no">
		</plan>

		<plan score="3.0" selected="no">
		</plan>

		<plan score="4.0" selected="no">
		</plan>

		<plan score="5.0" selected="no">
		</plan>

		<plan score="6.0" selected="no">
		</plan>

		<plan score="7.0" selected="no">
		</plan>

		<plan score="8.0" selected="no">
		</plan>

		<plan score="9.0" selected="no">
		</plan>

	</person>

<!-- ====================================================================== -->

	<person id="1027">
		<plan score="0.0" selected="yes">
		</plan>

		<plan score="1.0" selected="no">
		</plan>

		<plan score="2.0" selected="no">
		</plan>

		<plan score="3.0" selected="no">
		</plan>

		<plan score="4.0" selected="no">
		</plan>

		<plan score="5.0" selected="no">
		</plan>

		<plan score="6.0" selected="no">
		</plan>

		<plan score="7.0" selected="no">
		</plan>

		<plan score="8.0" selected="no">
		</plan>

		<plan score="9.0" selected="no">
		</plan>

	</person>

<!-- ====================================================================== -->

	<person id="1028">
		<plan score="0.0" selected="yes">
		</plan>

		<plan score="1.0" selected="no">
		</plan>

		<plan score="2.0" selected="no">
		</plan>

		<plan score="3.0" selected="no">
		</plan>

		<plan score="4.0" selected="no">
		</plan>

		<plan score="5.0" selected="no">
		</plan>

		<plan score="6.0" selected="no">
		</plan>

		<plan score="7.0" selected="no">
		</plan>

		<plan score="8.0" selected="no">
		</plan>

		<plan score="9.0" selected="no">
		</plan>

	</person>

<!-- ====================================================================== -->

	<person id="1029">
		<plan score="0.0" selected="yes">
		</plan>

		<plan score="1.0" selected="no">
		</plan>

		<plan score="2.0" selected="no">
		</plan>

		<plan score="3.0" selected="no">
		</plan>

		<plan score="4.0" selected="no">
		</plan>

		<plan score="5.0" selected="no">
		</plan>

		<plan score="6.0" selected="no">
		</plan>

		<plan score="7.0" selected="no">
		</plan>

		<plan score="8.0" selected="no">
		</plan>

		<plan score="9.0" selected="no">
		</plan>

	</person>

<!-- ====================================================================== -->

	<person id="103">
		<plan score="0.0" selected="yes">
		</plan>

		<plan score="1.0" selected="no">
		</plan>

		<plan score="2.0" selected="no">
		</plan>

		<plan score="3.0" selected="no">
		</plan>

		<plan score="4.0" selected="no">
		</plan>

		<plan score="5.0" selected="no">
		</plan>

		<plan score="6.0" selected="no">
		</plan>

		<plan score="7.0" selected="no">
		</plan>

		<plan score="8.0" selected="no">
		</plan>

		<plan score="9.0" selected="no">
		</plan>

	</person>

<!-- ====================================================================== -->

	<person id="1030">
		<plan score="0.0" selected="yes">
		</plan>

		<plan score="1.0" selected="no">
		</plan>

		<plan score="2.0" selected="no">
		</plan>

		<plan score="3.0" selected="no">
		</plan>

		<plan score="4.0" selected="no">
		</plan>

		<plan score="5.0" selected="no">
		</plan>

		<plan score="6.0" selected="no">
		</plan>

		<plan score="7.0" selected="no">
		</plan>

		<plan score="8.0" selected="no">
		</plan>

		<plan score="9.0" selected="no">
		</plan>

	</person>

<!-- ====================================================================== -->

	<person id="1031">
		<plan score="0.0" selected="yes">
		</plan>

		<plan score="1.0" selected="no">
		</plan>

		<plan score="2.0" selected="no">
		</plan>

		<plan score="3.0" selected="no">
		</plan>

		<plan score="4.0" selected="no">
		</plan>

		<plan score="5.0" selected="no">
		</plan>

		<plan score="6.0" selected="no">
		</plan>

		<plan score="7.0" selected="no">
		</plan>

		<plan score="8.0" selected="no">
		</plan>

		<plan score="9.0" selected="no">
		</plan>

	</person>

<!-- ====================================================================== -->

	<person id="1032">
		<plan score="0.0" selected="yes">
		</plan>

		<plan score="1.0" selected="no">
		</plan>

		<plan score="2.0" selected="no">
		</plan>

		<plan score="3.0" selected="no">
		</plan>

		<plan score="4.0" selected="no">
		</plan>

		<plan score="5.0" selected="no">
		</plan>

		<plan score="6.0" selected="no">
		</plan>

		<plan score="7.0" selected="no">
		</plan>

		<plan score="8.0" selected="no">
		</plan>

		<plan score="9.0" selected="no">
		</plan>

	</person>

<!-- ====================================================================== -->

	<person id="1033">
		<plan score="0.0" selected="yes">
		</plan>

		<plan score="1.0" selected="no">
		</plan>

		<plan score="2.0" selected="no">
		</plan>

		<plan score="3.0" selected="no">
		</plan>

		<plan score="4.0" selected="no">
		</plan>

		<plan score="5.0" selected="no">
		</plan>

		<plan score="6.0" selected="no">
		</plan>

		<plan score="7.0" selected="no">
		</plan>

		<plan score="8.0" selected="no">
		</plan>

		<plan score="9.0" selected="no">
		</plan>

	</person>

<!-- ====================================================================== -->

	<person id="1034">
		<plan score="0.0" selected="yes">
		</plan>

		<plan score="1.0" selected="no">
		</plan>

		<plan score="2.0" selected="no">
		</plan>

		<plan score="3.0" selected="no">
		</plan>

		<plan score="4.0" selected="no">
		</plan>

		<plan score="5.0" selected="no">
		</plan>

		<plan score="6.0" selected="no">
		</plan>

		<plan score="7.0" selected="no">
		</plan>

		<plan score="8.0" selected="no">
		</plan>

		<plan score="9.0" selected="no">
		</plan>

	</person>

<!-- ====================================================================== -->

	<person id="1035">
		<plan score="0.0" selected="yes">
		</plan>

		<plan score="1.0" selected="no">
		</plan>

		<plan score="2.0" selected="no">
		</plan>

		<plan score="3.0" selected="no">
		</plan>

		<plan score="4.0" selected="no">
		</plan>

		<plan score="5.0" selected="no">
		</plan>

		<plan score="6.0" selected="no">
		</plan>

		<plan score="7.0" selected="no">
		</plan>

		<plan score="8.0" selected="no">
		</plan>

		<plan score="9.0" selected="no">
		</plan>

	</person>

<!-- ====================================================================== -->

	<person id="1036">
		<plan score="0.0" selected="yes">
		</plan>

		<plan score="1.0" selected="no">
		</plan>

		<plan score="2.0" selected="no">
		</plan>

		<plan score="3.0" selected="no">
		</plan>

		<plan score="4.0" selected="no">
		</plan>

		<plan score="5.0" selected="no">
		</plan>

		<plan score="6.0" selected="no">
		</plan>

		<plan score="7.0" selected="no">
		</plan>

		<plan score="8.0" selected="no">
		</plan>

		<plan score="9.0" selected="no">
		</plan>

	</person>

<!-- ====================================================================== -->

	<person id="1037">
		<plan score="0.0" selected="yes">
		</plan>

		<plan score="1.0" selected="no">
		</plan>

		<plan score="2.0" selected="no">
		</plan>

		<plan score="3.0" selected="no">
		</plan>

		<plan score="4.0" selected="no">
		</plan>

		<plan score="5.0" selected="no">
		</plan>

		<plan score="6.0" selected="no">
		</plan>

		<plan score="7.0" selected="no">
		</plan>

		<plan score="8.0" selected="no">
		</plan>

		<plan score="9.0" selected="no">
		</plan>

	</person>

<!-- ====================================================================== -->

	<person id="1038">
		<plan score="0.0" selected="yes">
		</plan>

		<plan score="1.0" selected="no">
		</plan>

		<plan score="2.0" selected="no">
		</plan>

		<plan score="3.0" selected="no">
		</plan>

		<plan score="4.0" selected="no">
		</plan>

		<plan score="5.0" selected="no">
		</plan>

		<plan score="6.0" selected="no">
		</plan>

		<plan score="7.0" selected="no">
		</plan>

		<plan score="8.0" selected="no">
		</plan>

		<plan score="9.0" selected="no">
		</plan>

	</person>

<!-- ====================================================================== -->

	<person id="1039">
		<plan score="0.0" selected="yes">
		</plan>

		<plan score="1.0" selected="no">
		</plan>

		<plan score="2.0" selected="no">
		</plan>

		<plan score="3.0" selected="no">
		</plan>

		<plan score="4.0" selected="no">
		</plan>

		<plan score="5.0" selected="no">
		</plan>

		<plan score="6.0" selected="no">
		</plan>

		<plan score="7.0" selected="no">
		</plan>

		<plan score="8.0" selected="no">
		</plan>

		<plan score="9.0" selected="no">
		</plan>

	</person>

<!-- ====================================================================== -->

	<person id="104">
		<plan score="0.0" selected="yes">
		</plan>

		<plan score="1.0" selected="no">
		</plan>

		<plan score="2.0" selected="no">
		</plan>

		<plan score="3.0" selected="no">
		</plan>

		<plan score="4.0" selected="no">
		</plan>

		<plan score="5.0" selected="no">
		</plan>

		<plan score="6.0" selected="no">
		</plan>

		<plan score="7.0" selected="no">
		</plan>

		<plan score="8.0" selected="no">
		</plan>

		<plan score="9.0" selected="no">
		</plan>

	</person>

<!-- ====================================================================== -->

	<person id="1040">
		<plan score="0.0" selected="yes">
		</plan>

		<plan score="1.0" selected="no">
		</plan>

		<plan score="2.0" selected="no">
		</plan>

		<plan score="3.0" selected="no">
		</plan>

		<plan score="4.0" selected="no">
		</plan>

		<plan score="5.0" selected="no">
		</plan>

		<plan score="6.0" selected="no">
		</plan>

		<plan score="7.0" selected="no">
		</plan>

		<plan score="8.0" selected="no">
		</plan>

		<plan score="9.0" selected="no">
		</plan>

	</person>

<!-- ====================================================================== -->

	<person id="1041">
		<plan score="0.0" selected="yes">
		</plan>

		<plan score="1.0" selected="no">
		</plan>

		<plan score="2.0" selected="no">
		</plan>

		<plan score="3.0" selected="no">
		</plan>

		<plan score="4.0" selected="no">
		</plan>

		<plan score="5.0" selected="no">
		</plan>

		<plan score="6.0" selected="no">
		</plan>

		<plan score="7.0" selected="no">
		</plan>

		<plan score="8.0" selected="no">
		</plan>

		<plan score="9.0" selected="no">
		</plan>

	</person>

<!-- ====================================================================== -->

	<person id="1042">
		<plan score="0.0" selected="yes">
		</plan>

		<plan score="1.0" selected="no">
		</plan>

		<plan score="2.0" selected="no">
		</plan>

		<plan score="3.0" selected="no">
		</plan>

		<plan score="4.0" selected="no">
		</plan>

		<plan score="5.0" selected="no">
		</plan>

		<plan score="6.0" selected="no">
		</plan>

		<plan score="7.0" selected="no">
		</plan>

		<plan score="8.0" selected="no">
		</plan>

		<plan score="9.0" selected="no">
		</plan>

	</person>

<!-- ====================================================================== -->

	<person id="1043">
		<plan score="0.0" selected="yes">
		</plan>

		<plan score="1.0" selected="no">
		</plan>

		<plan score="2.0" selected="no">
		</plan>

		<plan score="3.0" selected="no">
		</plan>

		<plan score="4.0" selected="no">
		</plan>

		<plan score="5.0" selected="no">
		</plan>

		<plan score="6.0" selected="no">
		</plan>

		<plan score="7.0" selected="no">
		</plan>

		<plan score="8.0" selected="no">
		</plan>

		<plan score="9.0" selected="no">
		</plan>

	</person>
